Circuit: * Circuitos-2\TP2\LTSPICE\P11h_THD.asc

Direct Newton iteration for .op point succeeded.
.step thdtest=1
N-Period=all
Fourier components of V(vout)
DC component:-0.00632551

Harmonic	Frequency	 Fourier 	Normalized	 Phase  	Normalized
 Number 	  [Hz]   	Component	 Component	[degree]	Phase [deg]
    1   	1.000e+03	1.287e+00	1.000e+00	   -0.24°	    0.00°
    2   	2.000e+03	4.246e-04	3.299e-04	  104.58°	  104.82°
    3   	3.000e+03	2.553e-04	1.983e-04	 -172.24°	 -172.01°
    4   	4.000e+03	2.197e-04	1.707e-04	  110.52°	  110.76°
    5   	5.000e+03	8.994e-05	6.988e-05	 -175.35°	 -175.11°
    6   	6.000e+03	1.448e-04	1.125e-04	  114.20°	  114.44°
    7   	7.000e+03	3.009e-05	2.338e-05	  166.52°	  166.75°
    8   	8.000e+03	1.021e-04	7.936e-05	  116.37°	  116.61°
    9   	9.000e+03	1.504e-05	1.169e-05	   96.95°	   97.19°
Total Harmonic Distortion: 0.044923%(0.055376%)


.step thdtest=2
N-Period=all
Fourier components of V(vout)
DC component:-0.00764578

Harmonic	Frequency	 Fourier 	Normalized	 Phase  	Normalized
 Number 	  [Hz]   	Component	 Component	[degree]	Phase [deg]
    1   	1.000e+03	4.042e+00	1.000e+00	   -0.23°	    0.00°
    2   	2.000e+03	4.226e-04	1.046e-04	  114.01°	  114.25°
    3   	3.000e+03	3.502e-04	8.665e-05	 -163.04°	 -162.80°
    4   	4.000e+03	2.455e-04	6.075e-05	  118.61°	  118.85°
    5   	5.000e+03	2.240e-04	5.541e-05	 -162.23°	 -162.00°
    6   	6.000e+03	1.763e-04	4.361e-05	  125.55°	  125.78°
    7   	7.000e+03	1.426e-04	3.527e-05	 -160.18°	 -159.94°
    8   	8.000e+03	1.443e-04	3.570e-05	  129.91°	  130.14°
    9   	9.000e+03	9.717e-05	2.404e-05	 -159.36°	 -159.13°
Total Harmonic Distortion: 0.017379%(0.022702%)

.step thdtest=3
N-Period=all
Fourier components of V(vout)
DC component:-0.00952059

Harmonic	Frequency	 Fourier 	Normalized	 Phase  	Normalized
 Number 	  [Hz]   	Component	 Component	[degree]	Phase [deg]
    1   	1.000e+03	1.266e+01	1.000e+00	   -0.23°	    0.00°
    2   	2.000e+03	6.065e-04	4.792e-05	 -128.16°	 -127.93°
    3   	3.000e+03	1.150e-03	9.085e-05	   -8.94°	   -8.71°
    4   	4.000e+03	3.588e-04	2.835e-05	  122.45°	  122.68°
    5   	5.000e+03	2.543e-04	2.009e-05	 -144.33°	 -144.10°
    6   	6.000e+03	2.275e-04	1.798e-05	  131.65°	  131.88°
    7   	7.000e+03	2.094e-04	1.655e-05	 -144.77°	 -144.54°
    8   	8.000e+03	1.835e-04	1.450e-05	  136.55°	  136.78°
    9   	9.000e+03	1.764e-04	1.394e-05	 -144.78°	 -144.55°
Total Harmonic Distortion: 0.011296%(0.013876%)

.step thdtest=4
N-Period=all
Fourier components of V(vout)
DC component:-0.00783677

Harmonic	Frequency	 Fourier 	Normalized	 Phase  	Normalized
 Number 	  [Hz]   	Component	 Component	[degree]	Phase [deg]
    1   	1.000e+03	2.472e+01	1.000e+00	   -0.23°	    0.00°
    2   	2.000e+03	5.593e-03	2.263e-04	  -95.86°	  -95.62°
    3   	3.000e+03	1.217e-02	4.923e-04	   -0.11°	    0.12°
    4   	4.000e+03	1.120e-03	4.529e-05	  112.46°	  112.69°
    5   	5.000e+03	9.126e-04	3.692e-05	 -159.91°	 -159.68°
    6   	6.000e+03	2.321e-04	9.389e-06	  127.63°	  127.86°
    7   	7.000e+03	1.214e-04	4.913e-06	 -100.89°	 -100.66°
    8   	8.000e+03	2.570e-04	1.040e-05	  147.19°	  147.42°
    9   	9.000e+03	2.136e-04	8.643e-06	 -125.75°	 -125.52°
Total Harmonic Distortion: 0.054523%(0.054943%)

.step thdtest=5
N-Period=all
Fourier components of V(vout)
DC component:-0.00631785

Harmonic	Frequency	 Fourier 	Normalized	 Phase  	Normalized
 Number 	  [Hz]   	Component	 Component	[degree]	Phase [deg]
    1   	1.000e+04	1.284e+00	1.000e+00	   -4.39°	    0.00°
    2   	2.000e+04	1.204e-03	9.372e-04	  145.01°	  149.40°
    3   	3.000e+04	4.795e-04	3.734e-04	 -146.05°	 -141.66°
    4   	4.000e+04	8.359e-04	6.509e-04	  131.83°	  136.22°
    5   	5.000e+04	1.342e-04	1.045e-04	 -165.73°	 -161.34°
    6   	6.000e+04	6.080e-04	4.734e-04	  117.93°	  122.32°
    7   	7.000e+04	3.884e-05	3.025e-05	   49.29°	   53.68°
    8   	8.000e+04	4.325e-04	3.368e-04	  104.12°	  108.51°
    9   	9.000e+04	1.074e-04	8.363e-05	    9.57°	   13.96°
Total Harmonic Distortion: 0.134084%(0.144378%)

.step thdtest=6
N-Period=all
Fourier components of V(vout)
DC component:-0.0076396

Harmonic	Frequency	 Fourier 	Normalized	 Phase  	Normalized
 Number 	  [Hz]   	Component	 Component	[degree]	Phase [deg]
    1   	1.000e+04	4.024e+00	1.000e+00	   -4.36°	    0.00°
    2   	2.000e+04	1.780e-03	4.424e-04	  164.17°	  168.54°
    3   	3.000e+04	1.135e-03	2.820e-04	 -131.25°	 -126.89°
    4   	4.000e+04	1.225e-03	3.044e-04	  136.61°	  140.97°
    5   	5.000e+04	7.448e-04	1.851e-04	 -144.93°	 -140.56°
    6   	6.000e+04	1.005e-03	2.497e-04	  123.14°	  127.51°
    7   	7.000e+04	5.003e-04	1.243e-04	 -156.94°	 -152.58°
    8   	8.000e+04	8.439e-04	2.097e-04	  109.63°	  113.99°
    9   	9.000e+04	3.366e-04	8.363e-05	 -168.65°	 -164.28°
Total Harmonic Distortion: 0.072862%(0.076869%)

.step thdtest=7
N-Period=all
Fourier components of V(vout)
DC component:-0.00990816

Harmonic	Frequency	 Fourier 	Normalized	 Phase  	Normalized
 Number 	  [Hz]   	Component	 Component	[degree]	Phase [deg]
    1   	1.000e+04	1.265e+01	1.000e+00	   -4.35°	    0.00°
    2   	2.000e+04	6.068e-03	4.796e-04	 -148.79°	 -144.44°
    3   	3.000e+04	2.147e-03	1.697e-04	  -83.96°	  -79.61°
    4   	4.000e+04	1.852e-03	1.464e-04	  129.39°	  133.74°
    5   	5.000e+04	1.437e-03	1.136e-04	 -156.96°	 -152.61°
    6   	6.000e+04	1.439e-03	1.137e-04	  145.55°	  149.90°
    7   	7.000e+04	8.111e-04	6.412e-05	 -137.67°	 -133.32°
    8   	8.000e+04	1.495e-03	1.182e-04	  116.75°	  121.10°
    9   	9.000e+04	9.317e-04	7.364e-05	 -150.34°	 -145.99°
Total Harmonic Distortion: 0.057414%(0.056740%)

.step thdtest=8
N-Period=all
Fourier components of V(vout)
DC component:-0.00896604

Harmonic	Frequency	 Fourier 	Normalized	 Phase  	Normalized
 Number 	  [Hz]   	Component	 Component	[degree]	Phase [deg]
    1   	1.000e+04	2.472e+01	1.000e+00	   -4.36°	    0.00°
    2   	2.000e+04	2.341e-02	9.470e-04	 -119.27°	 -114.91°
    3   	3.000e+04	1.193e-02	4.827e-04	  -12.69°	   -8.33°
    4   	4.000e+04	5.146e-03	2.082e-04	  136.15°	  140.51°
    5   	5.000e+04	3.350e-03	1.355e-04	 -131.18°	 -126.82°
    6   	6.000e+04	1.749e-03	7.076e-05	  112.76°	  117.12°
    7   	7.000e+04	1.101e-03	4.456e-05	 -141.62°	 -137.26°
    8   	8.000e+04	2.010e-03	8.132e-05	  100.19°	  104.55°
    9   	9.000e+04	1.389e-03	5.617e-05	  179.52°	  183.88°
Total Harmonic Distortion: 0.109919%(0.106469%)



Measurement: vrms
  step	RMS(v(vout))	FROM	TO
     1	0.910133	0	0.9
     2	2.85783	0	0.9
     3	8.94927	0	0.9
     4	17.4773	0	0.9
     5	0.9081	0	0.9
     6	2.84562	0	0.9
     7	8.94538	0	0.9
     8	17.4782	0	0.9

Measurement: pout
  step	(vrms*vrms/ 8 )
     1	0.103543
     2	1.0209
     3	10.0112
     4	38.1822
     5	0.103081
     6	1.01219
     7	10.0025
     8	38.1859


Date: Sun May 19 17:27:57 2019
Total elapsed time: 610.767 seconds.

tnom = 27
temp = 27
method = modified trap
totiter = 4429953
traniter = 4429942
tranpoints = 1693469
accept = 1425506
rejected = 267963
matrix size = 36
fillins = 30
solver = Normal
Matrix Compiler1: 4.64 KB object code size  1.8/1.4/[0.5]
Matrix Compiler2: off  [0.7]/1.1/0.9

