Circuit: * Circuitos-2\TP2\LTSPICE\P3_gain.asc

Direct Newton iteration for .op point succeeded.

max_gain: MAX(20*log10(mag(v(vout))))=(31.2839dB,180°) FROM 0.01 TO 1e+008


Date: Tue May 21 22:43:40 2019
Total elapsed time: 0.658 seconds.

tnom = 27
temp = 27
method = trap
totiter = 11
traniter = 0
tranpoints = 0
accept = 0
rejected = 0
matrix size = 36
fillins = 28
solver = Normal
Matrix Compiler1:     250 opcodes
Matrix Compiler2: 3.79 KB object code size
