* LTspice Encrypted File
* 
* This encrypted file has been supplied by a 3rd
* party vendor that does not wish to publicize
* the technology used to implement this library.
* 
* Permission is granted to use this file for
* simulations but not to reverse engineer its
* contents.
* 
*********************************************************************
*  (C) Copyright 2019 Toshiba Electronic Devices & Storage Corporation
*  Date:                19/09/2017
*  File Name:           2SA1943.mod
*  Part Number:         2SA1943
*  Parameter Ver.:      Ver.1
*  Simulator:           LTspice
*  Model Call Name:     2SA1943
*  TNOM:                25 degree
*  Pin Assign:          1=Collector 2=Base 3=Emitter
*
* Operation of this model has been verified only on the LTspice.
*********************************************************************
* Begin:
 44 27 67 9B 6F E4 14 CA 03 E3 3D 78 A0 03 70 48
 45 8B 51 15 65 50 5F D6 9E B5 E6 C6 41 BF EE AB
 4D 45 74 2B BC 29 06 EE D4 E9 D3 B3 D5 E6 59 78
 1A 6C AB E2 EA 78 43 8F 58 70 99 39 DD CF A7 A0
 BA 28 2B 9F A0 7E F7 9A 11 C7 3A AB 09 FE 34 77
 D8 09 8E 96 F2 9C B5 BE 04 4A 4B 06 89 0F 9C EF
 42 F8 DC EA 1B 16 1A 5D 5D 4C 1C 78 3C 32 D0 F3
 71 16 5A D5 8D 6C 46 95 E9 88 90 80 4F DF 00 64
 8A C4 F7 F1 29 1E 18 43 42 4F 3D 51 8A AE EF 73
 7B 23 20 EC 1C F1 79 B5 E8 D6 5E 8C 66 7E 96 2C
 0C C1 4E C2 CD 52 A6 73 5D D5 A0 02 C2 BD F3 F8
 5C 24 2A 52 3F 8F 92 DC 62 A4 34 DE 41 3C FA AD
 E0 17 10 56 DE D0 DA 33 49 E9 AB 18 D5 B2 13 14
 28 99 A8 EC 56 97 34 58 CA 66 36 0B D9 75 64 B1
 E7 ED 45 C6 5F 7A 30 E9 4C 92 9F F3 CD AB 18 E3
 AB EC 1F B0 CB D0 DC 52 38 25 9D C2 66 0B 14 DD
 22 04 BD A6 59 C8 C7 C2 29 B7 F4 ED 29 9F E1 2D
 6F 62 5F 9F F3 D3 11 3C 4E D4 6D 98 01 0E A8 1C
 74 36 44 95 4A 67 77 4E FC 61 4A B5 13 4F 95 32
 48 55 90 1D E5 7A DA 8A 74 D4 34 BD DD D6 EE 67
 09 1A CA 89 D7 C1 F8 1A AE F0 3C 35 F9 7F 56 F7
 1C 65 AE 12 FD D7 4E 64 27 29 48 DE 2E 5E 07 96
 FD 41 37 18 B6 BF E4 24 4A 97 73 A5 9D 61 0E EA
 6C F8 7E FC 2E A6 44 87 C0 08 3F 8D A7 E6 95 6B
 EF 55 21 AE A4 DA 5A 12 1C 56 DD F9 37 BF 59 05
 AE 28 2C 4B CE B9 3B 20 18 1F 1E 2F EB 3C FF E8
 0C 35 B0 AF 1E B4 8D 27 75 52 6A 01 66 4C DE FB
 FE 22 5D 89 D3 2A 41 04 2D 0C 0D B2 E5 0F 7B 9C
 A8 28 A6 B3 4A 70 71 6C 8B 97 F6 63 75 4E E0 6A
 52 97 FA 58 99 6C F8 F8 DB EE 72 E1 32 C3 72 D1
 89 96 D3 8E 51 0E 26 4B 03 95 FE C9 77 0D 97 15
 D1 D4 FB 9C 27 B2 E6 A9 7E 3B 57 22 D9 4C 68 92
 8D 63 F8 BC D0 15 35 28 BB 84 33 1D 6A 1A F5 BF
 1F 03 4E 3F 52 15 D9 91 89 D6 DC 6E DB 80 A0 8E
 BA B9 F4 98 BF 04 FD 53 BA 29 8D D2 A7 0C 3F 5D
 83 2A 5A AB 6F BA DF 4F 31 34 24 8D 5F EE B8 26
 0E 2A 3E 52 4D 64 1A 56 26 D2 8C E8 64 6F E5 6C
 EB 27 47 09 97 EC 6B D7 68 F2 0F 23 9E 6F 56 CB
 F2 64 98 AE 1E E7 93 05 FD FA 0D 8E EA 15 35 5A
 34 15 3C A1 ED CC D6 94 9D 34 0C EB 2F BC FB FE
 AA 6F 99 70 7C 15 09 D7 37 BE BA 3C CD 4E 1F 66
 06 8A 57 F3 3F 43 2A CA 94 D1 EB 37 54 DA AB EE
 FC 19 2A 44 2B F9 65 F1 A9 57 A3 19 F5 86 4E 2F
 FF E4 8C EB A0 1B 84 3E 21 D0 B8 E2 A0 E4 4D F5
 35 7A EC 6C 9E 20 22 5D 9E E1 26 0D 2E 8F 0A D9
 F0 DB B5 16 0A 92 68 98 EF 74 66 35 6F C5 F1 E3
 02 E2 D8 BC A2 FA 93 D9 48 A5 9F 7E 15 69 B1 8F
 DC 9A A6 23 9C EB C3 1C DA 27 C9 6F 73 3C 9C 9F
 92 2D 51 61 9D 32 03 7B 64 E6 A9 1C 7C 56 EA DE
 2E E8 FE 49 7E D5 99 03 6D D3 6E 35 44 E1 7F CF
 8E 61 D0 F4 DC 66 9C 4D B9 2D 97 BE 73 27 6E 0C
 EA 5A 57 6E B0 72 95 39 17 E5 11 8A F9 9E AA 4F
 9B 2C 1B D9 EF 30 80 C6 AF B0 ED D9 4F C5 8B 12
 A6 50 96 A9 A9 8A 8A A8 70 1D 24 9E 1F DB 0B D8
 18 7F FA 04 D0 30 9C A0 5E FA 36 20 5D D7 DF DA
 14 80 75 4C 69 34 68 09 75 BA D2 97 A3 C4 F4 19
 E8 1A F4 05 AB AE F2 1F D4 CA C6 10 48 3A 95 F8
 B6 B4 F6 93 8F A5 B9 E8 12 42 C0 98 3C C6 0E 73
 58 29 0A 02 E8 97 DF E5 1E 09 04 F4 95 C7 01 15
 34 8C 12 D5 2B DA 17 EB BC 96 3C 6D 87 70 5E E7
 CC A6 28 DD 58 BE EC F9 BB 86 2C A5 22 49 35 23
 F5 12 37 A7 2D 15 7F 2C 6C CB 50 9D 7F D0 47 6F
 0B BA D8 C4 62 15 FE 29 99 23 76 AD 17 81 4B DE
 24 C2 F5 A1 DE 56 AA A8 B3 D6 4F 23 6B FD 51 0C
 7C 38 F9 CD 61 2E A3 03 5C 31 70 BE 06 66 8A 44
 91 0C CB 56 9F C6 CE 23 77 EF 25 77 E7 A2 D1 F3
 A1 EE AA E2 F3 B4 B6 D4 97 22 9B C1 16 23 22 E4
 82 80 B0 D8 6C BA 44 EE 21 55 09 F2 9A ED E7 F7
 43 C9 05 8E A4 B9 8F 06 75 14 DE 1C A0 16 B8 89
 9F 18 18 5F C2 CA B4 F5 06 EB B5 CD 3E B2 AE 41
 D4 D2 5C C7 73 31 4E 4F C4 01 5D B6 A3 BA D1 63
 B2 0F 3F 4D FB 70 23 2E 21 88 26 0F AF C4 6D 93
 8C 74 A7 90 04 48 AC 53 54 CB 61 EC 05 73 F6 B5
 85 7F 8A 9F C9 EC C6 A9 E4 1B 57 E0 43 19 74 DF
 21 80 41 E0 FD 77 10 DC 2C 71 BE 20 6A 0F B9 C0
 91 5C 95 39 63 D9 C0 38 52 07 A2 56 CD 76 29 3B
 C4 8E F6 05 32 62 20 4D 94 88 3D 88 CF C4 12 69
 63 59 8A 90 FC BA FB 40 17 75 03 10 D5 00 1E A1
 6A F2 B1 88 20 CB D9 85 59 2F A7 69 AF 6D 54 CB
 43 B0 60 FC 63 8F B1 D0 05 EF AD F9 AB 8C 00 E0
 A9 04 DE E9 84 96 D6 41 D2 9F 5A F4 0C B6 2F 9B
 48 07 E0 26 78 15 1E 08 0A 7A 53 FD 6C 3C 9B F5
 04 E8 9B 40 51 8C 41 0D 0E 98 F5 FE 7F AA A2 F8
 CF 68 8F 61 95 92 42 DA D9 4A 55 29 A8 05 C9 FD
 CB 66 CB 54 09 95 B4 DD 96 7C 1A D8 99 01 93 34
 2B 4B 1D 48 98 5B C1 49 63 93 F7 1F 2B B4 67 9C
 B8 D2 B8 60 A5 7C 5D 9E 32 60 00 7F 00 03 D8 C2
 6E B7 37 C5 9B 1A 2A 3B B9 A2 32 94 9B 98 9A 4C
 7F BA FA 59 6B BE 6C EF 09 A8 8F A0 43 FD AA B8
 FB 99 C6 E9 59 18 61 C6 09 CD DE A4 62 16 62 9F
 B7 31 28 12 85 90 C9 15 21 12 EE 74 62 C3 BB 6E
 33 6D 38 1E 1B 43 98 C4 8D 47 E5 36 8D 04 06 4E
 92 A0 28 CB BB E2 80 41 F4 5B 16 C3 B4 B2 24 F7
 3D CB F4 49 9C 58 EB E8 3D C0 AD 79 48 89 35 CD
 0F D6 F4 07 45 A1 EB 09 96 69 1B 60 BD 0C 2D 83
 6F 8E 49 A3 2A 94 8D F8 25 1D C0 38 07 70 17 14
 05 66 B7 95 F4 6C B9 18 89 02 FE FC 4A 10 D0 A6
 8D 0A EF 45 3F F1 FB 79 5F 19 22 DE 44 86 71 2A
 A1 52 78 95 D9 72 3C 84 F5 37 E3 F4 C7 31 84 14
 AB A7 93 48 3C F4 AE 64 CF 08 A3 AB F6 44 2A DF
 35 AE FB F6 CC B9 93 54 FE F6 F6 82 3E 5E 9F 97
 AD 2D 0C 20 1A DF 3D EB C8 15 76 75 AA 22 26 56
 14 B1 18 06 AA 59 DC 6C 05 46 DC E7 F5 30 B2 A6
 2A 4D 61 28 E3 76 AA 29 B8 9C EA 8A E3 85 E9 F3
 52 E6 DF F3 19 02 84 AF C3 D3 5D EB 5B 7F 3A 79
 8D 9C FB 3C B2 86 AF 6D 0C A8 AD C5 1F B9 5C 55
 6F 2C 0C 88 AD 2B E8 3D 88 64 28 70 CD 9D F4 E9
 D8 B3 FA 03 E2 68 CF 70 E6 9B 39 8A 10 61 4E 7D
 54 DB B4 70 DF 94 4D 4F 85 52 11 AE F7 88 4D 49
 FE 60 94 80 27 AB 7C 00 50 0E 82 ED 65 BB E7 29
 0F F5 7D 21 F5 C6 4F 0E 56 FD FC 38 92 AD 50 8F
 19 32 F8 6B 68 B1 D0 B1 8A 06 FD 29 2E F0 4F F1
 72 DC DD A6 A3 22 BA D2 6B 7D 8B 6D 17 76 8E D2
 BD 67 0C 35 36 47 BC A8 C2 E0 91 42 3A A2 A8 3A
 43 CA 04 7C 64 53 EA 13 B9 BE 6C 07 F0 C2 BB 47
 E9 9A 96 15 15 75 99 3E 8E 01 06 71 14 3A 9C 0B
 9E 06 FF 27 FD 40 4F 6C 13 19 84 04 72 9E D0 E0
 08 93 B3 92 3B 47 C4 37 CF 71 1B BA 1F CD 56 7E
 44 19 3F 62 33 C4 24 34 95 0A 0E 3E BE F9 EB CF
 6A 98 A1 1C 24 20 5A BE 7C 95 C0 5C 3F 0A D7 8B
 1C A0 69 7F B3 4B 86 7B 55 24 7F F3 A2 BE FE 0C
 43 98 E2 7C 90 E3 C2 2F 3D FD 9D 8E 82 92 C5 06
 0C 15 52 F8 ED 0C 25 E4 A0 DB CA 30 F9 CC C2 AB
 4C D1 A0 0B 08 B1 79 8A 34 89 BB 16 73 05 77 85
 C1 6C 0A BD 8B 94 50 6E CA 11 45 68 38 92 48 85
 46 12 7F F1 1E E0 FE 42 41 47 E7 41 AA AE 88 44
 4C 6F CB FC 07 87 4F 9A 04 F8 D1 79 5E 4E 56 D1
 85 0E 8D 77 43 6C 7C 49 CF CE B2 21 B8 6B 0D D3
 CE 8B CB 22 7D EB B4 65 39 4A F4 A3 4E 2C 8B 34
 E7 BA 51 1A F6 25 57 96 D8 E0 DF E1 4D 74 B8 85
 13 AE 37 BA 01 4B 2E 29 ED 60 A4 6A D6 73 BE B5
 65 50 85 F6 2B EE 2D 59 47 1B D0 B5 46 86 ED 70
 24 02 75 F4 7C 97 EB 67 E1 57 2B 17 B6 3E 3E B9
 20 02 F0 EA 94 3B 2C 71 62 C0 13 DF 22 2F 51 9D
 38 53 5F C6 AF CB 32 A2 85 E4 FF AD E3 98 94 C8
 B7 18 EE AE 84 CD 2E 94 D0 E5 D2 EB 10 3C 13 B5
 9E 8A 63 35 8E 1A 33 C2 C0 5E 38 6C FF 90 19 8B
 6F 8F 9E E1 CA 77 99 59 B7 C5 C3 D8 89 18 CF 6B
 C0 52 3B B6 48 A4 03 B1 07 78 6A 75 A8 D3 15 5B
 E0 73 F1 96 A1 49 F5 BB 93 BA EC A2 7B 72 7C D6
 4D 8C 65 A4 68 F1 B5 07 F6 1D B9 25 D5 1A 8D AC
 90 DA B1 D6 B5 2E D8 D2 97 91 19 B9 D6 C6 B3 D8
 AA 5B BC 5C F7 BB EA E6 5C 10 A4 27 C4 CC 89 C8
 D0 3D 30 6D 02 EE 44 B5 12 D7 31 A1 C7 5E 04 93
 7B 73 D9 58 05 5E E3 85 F8 35 34 F7 85 93 D7 AA
 B7 EB DB 45 45 29 C0 BD 3B 40 D8 72 1C 7A A1 C8
 F2 D4 C4 18 BA 05 04 C2 3A F5 CD 9C C1 16 AB 27
 0E 1C 9D CE 4A 37 C9 61 5C C8 18 97 22 BA A8 8A
 88 6E 83 A0 12 7A 90 65 D1 CB 81 11 D4 C0 58 34
 DD 14 64 C0 CE B8 32 00 B1 CB 61 45 E4 99 68 96
 25 B2 A4 FC AB B5 EB 8C 6E 5C B4 A1 64 C7 8A FC
 EA 80 19 35 C1 95 F6 B1 F4 CB 6E D6 D0 56 E0 EC
 67 B6 E4 B9 E0 26 19 61 44 19 4D C6 B9 C8 44 BE
 70 9A 9B 13 53 5C 39 D2 FC C5 CA 05 D1 EC 28 70
 60 CA 08 FF DE 9C F2 F3 19 18 5E 19 93 F0 A3 44
 21 26 A0 38 A1 61 66 4F 4E 6D 47 FA 51 D2 3D 23
 15 7F 4B 23 36 95 D4 0D 9D B9 F4 69 41 22 46 06
 28 06 C1 1A AF 3B 0C 65 1A CC AE BD FC C4 25 D0
 1B 3D 99 3E 3D 7B 69 B7 7F 18 F7 F2 A6 AF 32 EB
 6E 25 66 FC 5C 37 D4 8A 4D B0 1C 73 68 53 A8 CD
 FD AE A4 6F DD 69 17 E9 C4 29 C1 1F 53 92 ED FE
 F3 04 18 79 40 B9 13 77 AE 06 61 35 9B CE D6 69
 3F 59 2D 3A 74 71 C7 F2 50 AC 6D DC 5E D9 B8 0B
 27 8F 2F 52 19 19 37 78 7F 5C 3A 3A A7 AF B5 61
 95 92 88 20 CF 02 03 10 E5 9E 47 C6 F9 C9 0B F8
 46 9D 7B 5B F7 14 A1 A6 CE 83 20 47 51 27 CF 19
 70 61 37 FE 3A ED E0 A8 01 44 92 49 FF 6B 2A A9
 F2 A4 A3 47 60 AE 0D 03 69 6E 95 C0 74 29 AF CF
 25 72 88 71 67 7E 4F F6 B0 D0 20 DF 1F E9 AB 2A
 71 39 F9 D0 D1 E3 BA 19 CF EA DD B9 6E 57 C7 52
 01 95 1A 5A 73 00 63 12 A3 C2 5F AE DE 3B BA DD
 6D DE AF 4B 93 71 B9 D6 6B 97 99 71 C1 A1 B6 81
 C6 36 12 D7 D4 57 14 B2 D8 53 6A A0 25 AE 78 CF
 D7 7C D4 75 53 26 06 85 D9 4A AF DF 0C AD 87 D4
 F3 5E EA 8D 56 B8 B5 3E D7 B6 5D EC 17 86 E0 4E
 F7 5C FA 91 EC 66 79 13 E5 A7 F8 56 34 7C 20 58
 00 F7 E7 4C 42 FC 0D F2 FD D2 25 FD 16 30 7C 14
 26 B4 9C 55 82 C9 D2 16 C9 5C 49 6B 5E F7 85 4C
 CB 59 7C 38 74 18 14 F7 E6 9C E2 D8 47 EB 45 6D
 4B 30 8B 89 BE 45 D8 BA 10 40 49 6F 6E CF 21 B1
 FB 00 1F 7A 5C 66 E9 3F 89 08 42 9C 2A 32 DF 30
 28 00 1D 83 ED AE 3E CF 79 70 F0 BE 7E 11 33 BA
 21 2B B6 4D 8A 4F 5E AB FB 7D 79 C9 B7 00 52 6E
 D9 AD 22 D4 49 9B C3 7D 42 5B AC 83 CB D8 03 99
 AA BB 19 27 47 D9 27 F1 01 6E EA 6C FA 53 84 B9
 92 78 58 FA 84 35 24 58 1B 6F 6F 1F 47 43 04 72
 68 D7 06 8F 48 DA AC F8 2F 8B FA 8D 11 A9 F2 BD
 B4 0F B3 51 D4 88 09 71 FA DD 60 3B 35 38 E3 2B
 45 92 90 98 78 D3 DE 23 05 AA FB 4E E0 67 39 46
 4E 8E CC D4 A6 0E 00 71 DB B8 E5 1D 5A 95 E4 5F
 29 E1 DA D1 F3 81 3B 22 BF 75 10 E9 87 93 F8 95
 0E 3B E2 4B 7C F4 EB 11 F1 89 58 05 F3 A6 BE 17
 52 B6 DA F6 7E CD 44 E2 6B 5F 54 95 9E 66 88 4E
 5C 64 39 8B E0 D2 36 17 4F 85 B0 2D F1 FC 23 36
 3C 9A 30 4A 3F 58 9F A0 07 B6 36 E7 55 1F BE 55
 2F 9D 50 43 8F D3 8C CC D5 02 7C A4 77 96 23 90
 71 BA 6F DE 8C 1A 95 98 41 80 A4 65 72 D5 AE 31
* End 735193161 3000888408