Circuit: * C:\Users\bakaneko\Facultad\Materias\Circuitos Electrónicos II\TPS\REPO-TPS\REPO\TP_FInal_V2\DSE\Spice (Diego)\amplifier\amplifier_THD_vs_power.asc

Direct Newton iteration failed to find .op point.  (Use ".option noopiter" to skip.)
Starting Gmin stepping
Gmin = 10
Gmin = 1.07374
Gmin = 0.115292
Gmin = 0.0123794
Gmin = 0.00132923
Gmin = 0.000142725
Gmin = 1.5325e-005
Gmin = 1.6455e-006
vernier = 0.5
vernier = 0.25
vernier = 0.125
vernier = 0.0625
vernier = 0.03125
vernier = 0.015625
vernier = 0.0078125
vernier = 0.00390625
vernier = 0.00195313
vernier = 0.000976563
Gmin = 2.05688e-006
vernier = 0.000488281
Gmin = 0
Gmin stepping failed

Starting source stepping with srcstepmethod=0
Source Step = 3.0303%
Source Step = 33.3333%
Source Step = 63.6364%
Source Step = 93.9394%
Source stepping succeeded in finding the operating point.

.step vpin=0.025
N-Period=4
Fourier components of V(out)
DC component:-0.00425291

Harmonic	Frequency	 Fourier 	Normalized	 Phase  	Normalized
 Number 	  [Hz]   	Component	 Component	[degree]	Phase [deg]
    1   	1.000e+03	6.039e-01	1.000e+00	    0.36°	    0.00°
    2   	2.000e+03	3.014e-05	4.991e-05	 -180.00°	 -180.36°
    3   	3.000e+03	1.949e-05	3.227e-05	  179.85°	  179.48°
    4   	4.000e+03	1.462e-05	2.421e-05	 -179.90°	 -180.26°
    5   	5.000e+03	1.169e-05	1.936e-05	 -179.91°	 -180.28°
    6   	6.000e+03	9.743e-06	1.614e-05	 -179.93°	 -180.30°
    7   	7.000e+03	8.353e-06	1.383e-05	 -179.95°	 -180.31°
    8   	8.000e+03	7.309e-06	1.210e-05	 -179.95°	 -180.31°
    9   	9.000e+03	6.496e-06	1.076e-05	 -179.95°	 -180.32°
   10   	1.000e+04	5.846e-06	9.682e-06	 -179.96°	 -180.32°
   11   	1.100e+04	5.315e-06	8.802e-06	 -179.96°	 -180.33°
   12   	1.200e+04	4.872e-06	8.068e-06	 -179.96°	 -180.33°
   13   	1.300e+04	4.497e-06	7.448e-06	 -179.97°	 -180.33°
   14   	1.400e+04	4.176e-06	6.916e-06	 -179.97°	 -180.34°
   15   	1.500e+04	3.898e-06	6.455e-06	 -179.97°	 -180.34°
   16   	1.600e+04	3.654e-06	6.051e-06	 -179.97°	 -180.34°
   17   	1.700e+04	3.439e-06	5.695e-06	 -179.98°	 -180.34°
   18   	1.800e+04	3.248e-06	5.379e-06	 -179.98°	 -180.34°
   19   	1.900e+04	3.077e-06	5.096e-06	 -179.98°	 -180.34°
   20   	2.000e+04	2.923e-06	4.841e-06	 -179.98°	 -180.34°
   21   	2.100e+04	2.784e-06	4.611e-06	 -179.98°	 -180.34°
   22   	2.200e+04	2.658e-06	4.401e-06	 -179.98°	 -180.35°
   23   	2.300e+04	2.542e-06	4.210e-06	 -179.98°	 -180.35°
   24   	2.400e+04	2.436e-06	4.034e-06	 -179.98°	 -180.35°
   25   	2.500e+04	2.339e-06	3.873e-06	 -179.98°	 -180.35°
   26   	2.600e+04	2.249e-06	3.724e-06	 -179.98°	 -180.35°
   27   	2.700e+04	2.165e-06	3.586e-06	 -179.98°	 -180.35°
   28   	2.800e+04	2.088e-06	3.458e-06	 -179.99°	 -180.35°
   29   	2.900e+04	2.016e-06	3.339e-06	 -179.99°	 -180.35°
   30   	3.000e+04	1.949e-06	3.227e-06	 -179.99°	 -180.35°
Total Harmonic Distortion: 0.007672%(0.048720%)


.step vpin=0.05
N-Period=4
Fourier components of V(out)
DC component:-0.00808435

Harmonic	Frequency	 Fourier 	Normalized	 Phase  	Normalized
 Number 	  [Hz]   	Component	 Component	[degree]	Phase [deg]
    1   	1.000e+03	1.208e+00	1.000e+00	    0.36°	    0.00°
    2   	2.000e+03	6.199e-05	5.133e-05	  179.81°	  179.45°
    3   	3.000e+03	3.898e-05	3.228e-05	  179.18°	  178.82°
    4   	4.000e+03	2.929e-05	2.426e-05	 -179.90°	 -180.26°
    5   	5.000e+03	2.339e-05	1.937e-05	  179.97°	  179.60°
    6   	6.000e+03	1.948e-05	1.613e-05	 -179.93°	 -180.30°
    7   	7.000e+03	1.670e-05	1.383e-05	 -179.96°	 -180.32°
    8   	8.000e+03	1.462e-05	1.210e-05	 -179.95°	 -180.31°
    9   	9.000e+03	1.299e-05	1.076e-05	 -179.94°	 -180.31°
   10   	1.000e+04	1.169e-05	9.681e-06	 -179.96°	 -180.32°
   11   	1.100e+04	1.063e-05	8.803e-06	 -179.97°	 -180.33°
   12   	1.200e+04	9.745e-06	8.069e-06	 -179.96°	 -180.33°
   13   	1.300e+04	8.994e-06	7.447e-06	 -179.97°	 -180.33°
   14   	1.400e+04	8.352e-06	6.916e-06	 -179.97°	 -180.34°
   15   	1.500e+04	7.796e-06	6.455e-06	 -179.97°	 -180.34°
   16   	1.600e+04	7.308e-06	6.051e-06	 -179.97°	 -180.34°
   17   	1.700e+04	6.878e-06	5.695e-06	 -179.98°	 -180.34°
   18   	1.800e+04	6.496e-06	5.379e-06	 -179.98°	 -180.34°
   19   	1.900e+04	6.154e-06	5.096e-06	 -179.98°	 -180.34°
   20   	2.000e+04	5.847e-06	4.841e-06	 -179.98°	 -180.34°
   21   	2.100e+04	5.568e-06	4.611e-06	 -179.98°	 -180.35°
   22   	2.200e+04	5.315e-06	4.401e-06	 -179.98°	 -180.35°
   23   	2.300e+04	5.084e-06	4.210e-06	 -179.98°	 -180.35°
   24   	2.400e+04	4.872e-06	4.034e-06	 -179.98°	 -180.35°
   25   	2.500e+04	4.677e-06	3.873e-06	 -179.98°	 -180.35°
   26   	2.600e+04	4.497e-06	3.724e-06	 -179.98°	 -180.35°
   27   	2.700e+04	4.331e-06	3.586e-06	 -179.98°	 -180.35°
   28   	2.800e+04	4.176e-06	3.458e-06	 -179.99°	 -180.35°
   29   	2.900e+04	4.032e-06	3.339e-06	 -179.99°	 -180.35°
   30   	3.000e+04	3.898e-06	3.227e-06	 -179.99°	 -180.35°
Total Harmonic Distortion: 0.007767%(0.048735%)

.step vpin=0.075
N-Period=4
Fourier components of V(out)
DC component:-0.011916

Harmonic	Frequency	 Fourier 	Normalized	 Phase  	Normalized
 Number 	  [Hz]   	Component	 Component	[degree]	Phase [deg]
    1   	1.000e+03	1.812e+00	1.000e+00	    0.36°	    0.00°
    2   	2.000e+03	9.520e-05	5.255e-05	  179.64°	  179.27°
    3   	3.000e+03	5.848e-05	3.228e-05	  178.57°	  178.20°
    4   	4.000e+03	4.424e-05	2.442e-05	 -179.91°	 -180.27°
    5   	5.000e+03	3.509e-05	1.937e-05	  179.54°	  179.17°
    6   	6.000e+03	2.919e-05	1.612e-05	 -179.94°	 -180.30°
    7   	7.000e+03	2.506e-05	1.383e-05	 -180.00°	 -180.36°
    8   	8.000e+03	2.192e-05	1.210e-05	 -179.95°	 -180.31°
    9   	9.000e+03	1.949e-05	1.076e-05	 -179.94°	 -180.30°
   10   	1.000e+04	1.754e-05	9.680e-06	 -179.96°	 -180.32°
   11   	1.100e+04	1.595e-05	8.803e-06	 -179.97°	 -180.34°
   12   	1.200e+04	1.462e-05	8.069e-06	 -179.96°	 -180.33°
   13   	1.300e+04	1.349e-05	7.447e-06	 -179.96°	 -180.33°
   14   	1.400e+04	1.253e-05	6.915e-06	 -179.97°	 -180.34°
   15   	1.500e+04	1.169e-05	6.455e-06	 -179.97°	 -180.34°
   16   	1.600e+04	1.096e-05	6.051e-06	 -179.97°	 -180.34°
   17   	1.700e+04	1.032e-05	5.695e-06	 -179.97°	 -180.34°
   18   	1.800e+04	9.744e-06	5.379e-06	 -179.98°	 -180.34°
   19   	1.900e+04	9.232e-06	5.096e-06	 -179.98°	 -180.34°
   20   	2.000e+04	8.770e-06	4.841e-06	 -179.98°	 -180.34°
   21   	2.100e+04	8.352e-06	4.610e-06	 -179.98°	 -180.35°
   22   	2.200e+04	7.973e-06	4.401e-06	 -179.98°	 -180.35°
   23   	2.300e+04	7.626e-06	4.210e-06	 -179.98°	 -180.35°
   24   	2.400e+04	7.308e-06	4.034e-06	 -179.98°	 -180.35°
   25   	2.500e+04	7.016e-06	3.873e-06	 -179.98°	 -180.35°
   26   	2.600e+04	6.746e-06	3.724e-06	 -179.98°	 -180.35°
   27   	2.700e+04	6.496e-06	3.586e-06	 -179.98°	 -180.35°
   28   	2.800e+04	6.264e-06	3.458e-06	 -179.98°	 -180.35°
   29   	2.900e+04	6.048e-06	3.339e-06	 -179.99°	 -180.35°
   30   	3.000e+04	5.847e-06	3.227e-06	 -179.99°	 -180.35°
Total Harmonic Distortion: 0.007853%(0.048748%)

.step vpin=0.1
N-Period=4
Fourier components of V(out)
DC component:-0.0157479

Harmonic	Frequency	 Fourier 	Normalized	 Phase  	Normalized
 Number 	  [Hz]   	Component	 Component	[degree]	Phase [deg]
    1   	1.000e+03	2.415e+00	1.000e+00	    0.36°	    0.00°
    2   	2.000e+03	1.291e-04	5.344e-05	  179.47°	  179.11°
    3   	3.000e+03	7.798e-05	3.228e-05	  178.44°	  178.07°
    4   	4.000e+03	5.980e-05	2.476e-05	 -179.92°	 -180.28°
    5   	5.000e+03	4.681e-05	1.938e-05	  178.76°	  178.39°
    6   	6.000e+03	3.893e-05	1.612e-05	 -179.94°	 -180.31°
    7   	7.000e+03	3.341e-05	1.383e-05	  179.78°	  179.42°
    8   	8.000e+03	2.919e-05	1.208e-05	 -179.95°	 -180.32°
    9   	9.000e+03	2.598e-05	1.076e-05	 -179.94°	 -180.31°
   10   	1.000e+04	2.337e-05	9.677e-06	 -179.96°	 -180.32°
   11   	1.100e+04	2.126e-05	8.802e-06	 -179.96°	 -180.33°
   12   	1.200e+04	1.949e-05	8.069e-06	 -179.96°	 -180.33°
   13   	1.300e+04	1.799e-05	7.447e-06	 -179.95°	 -180.32°
   14   	1.400e+04	1.670e-05	6.915e-06	 -179.97°	 -180.34°
   15   	1.500e+04	1.559e-05	6.455e-06	 -179.98°	 -180.34°
   16   	1.600e+04	1.462e-05	6.052e-06	 -179.97°	 -180.34°
   17   	1.700e+04	1.376e-05	5.695e-06	 -179.97°	 -180.34°
   18   	1.800e+04	1.299e-05	5.379e-06	 -179.98°	 -180.34°
   19   	1.900e+04	1.231e-05	5.096e-06	 -179.98°	 -180.34°
   20   	2.000e+04	1.169e-05	4.841e-06	 -179.98°	 -180.34°
   21   	2.100e+04	1.114e-05	4.610e-06	 -179.98°	 -180.35°
   22   	2.200e+04	1.063e-05	4.401e-06	 -179.98°	 -180.35°
   23   	2.300e+04	1.017e-05	4.210e-06	 -179.98°	 -180.35°
   24   	2.400e+04	9.744e-06	4.034e-06	 -179.98°	 -180.35°
   25   	2.500e+04	9.354e-06	3.873e-06	 -179.98°	 -180.35°
   26   	2.600e+04	8.995e-06	3.724e-06	 -179.98°	 -180.35°
   27   	2.700e+04	8.661e-06	3.586e-06	 -179.98°	 -180.35°
   28   	2.800e+04	8.352e-06	3.458e-06	 -179.98°	 -180.35°
   29   	2.900e+04	8.064e-06	3.339e-06	 -179.99°	 -180.35°
   30   	3.000e+04	7.795e-06	3.227e-06	 -179.99°	 -180.35°
Total Harmonic Distortion: 0.007923%(0.048759%)

.step vpin=0.125
N-Period=4
Fourier components of V(out)
DC component:-0.01958

Harmonic	Frequency	 Fourier 	Normalized	 Phase  	Normalized
 Number 	  [Hz]   	Component	 Component	[degree]	Phase [deg]
    1   	1.000e+03	3.019e+00	1.000e+00	    0.36°	    0.00°
    2   	2.000e+03	1.630e-04	5.398e-05	  179.32°	  178.96°
    3   	3.000e+03	9.743e-05	3.227e-05	  178.90°	  178.54°
    4   	4.000e+03	7.608e-05	2.520e-05	 -179.92°	 -180.29°
    5   	5.000e+03	5.858e-05	1.940e-05	  177.90°	  177.54°
    6   	6.000e+03	4.889e-05	1.619e-05	 -179.95°	 -180.31°
    7   	7.000e+03	4.178e-05	1.384e-05	  179.26°	  178.90°
    8   	8.000e+03	3.642e-05	1.206e-05	 -179.96°	 -180.33°
    9   	9.000e+03	3.248e-05	1.076e-05	  179.94°	  179.58°
   10   	1.000e+04	2.918e-05	9.663e-06	 -179.96°	 -180.33°
   11   	1.100e+04	2.657e-05	8.801e-06	 -179.96°	 -180.32°
   12   	1.200e+04	2.435e-05	8.066e-06	 -179.96°	 -180.33°
   13   	1.300e+04	2.248e-05	7.447e-06	 -179.94°	 -180.30°
   14   	1.400e+04	2.088e-05	6.915e-06	 -179.97°	 -180.34°
   15   	1.500e+04	1.949e-05	6.455e-06	 -179.98°	 -180.34°
   16   	1.600e+04	1.827e-05	6.052e-06	 -179.97°	 -180.34°
   17   	1.700e+04	1.719e-05	5.695e-06	 -179.97°	 -180.33°
   18   	1.800e+04	1.624e-05	5.378e-06	 -179.98°	 -180.34°
   19   	1.900e+04	1.539e-05	5.096e-06	 -179.98°	 -180.35°
   20   	2.000e+04	1.462e-05	4.841e-06	 -179.98°	 -180.34°
   21   	2.100e+04	1.392e-05	4.610e-06	 -179.98°	 -180.34°
   22   	2.200e+04	1.329e-05	4.401e-06	 -179.98°	 -180.35°
   23   	2.300e+04	1.271e-05	4.210e-06	 -179.98°	 -180.35°
   24   	2.400e+04	1.218e-05	4.034e-06	 -179.98°	 -180.35°
   25   	2.500e+04	1.169e-05	3.873e-06	 -179.98°	 -180.35°
   26   	2.600e+04	1.124e-05	3.724e-06	 -179.99°	 -180.35°
   27   	2.700e+04	1.083e-05	3.586e-06	 -179.98°	 -180.35°
   28   	2.800e+04	1.044e-05	3.458e-06	 -179.98°	 -180.35°
   29   	2.900e+04	1.008e-05	3.339e-06	 -179.99°	 -180.35°
   30   	3.000e+04	9.744e-06	3.227e-06	 -179.99°	 -180.35°
Total Harmonic Distortion: 0.007975%(0.048767%)

.step vpin=0.15
N-Period=4
Fourier components of V(out)
DC component:-0.0234122

Harmonic	Frequency	 Fourier 	Normalized	 Phase  	Normalized
 Number 	  [Hz]   	Component	 Component	[degree]	Phase [deg]
    1   	1.000e+03	3.623e+00	1.000e+00	    0.36°	    0.00°
    2   	2.000e+03	1.966e-04	5.425e-05	  179.18°	  178.82°
    3   	3.000e+03	1.168e-04	3.225e-05	  179.80°	  179.43°
    4   	4.000e+03	9.287e-05	2.563e-05	 -179.93°	 -180.29°
    5   	5.000e+03	7.037e-05	1.942e-05	  177.30°	  176.94°
    6   	6.000e+03	5.925e-05	1.635e-05	 -179.95°	 -180.31°
    7   	7.000e+03	5.018e-05	1.385e-05	  178.51°	  178.15°
    8   	8.000e+03	4.372e-05	1.207e-05	 -179.97°	 -180.34°
    9   	9.000e+03	3.898e-05	1.076e-05	  179.60°	  179.24°
   10   	1.000e+04	3.494e-05	9.643e-06	 -179.98°	 -180.34°
   11   	1.100e+04	3.189e-05	8.801e-06	  179.98°	  179.62°
   12   	1.200e+04	2.919e-05	8.055e-06	 -179.97°	 -180.33°
   13   	1.300e+04	2.698e-05	7.446e-06	 -179.92°	 -180.28°
   14   	1.400e+04	2.504e-05	6.912e-06	 -179.97°	 -180.34°
   15   	1.500e+04	2.339e-05	6.455e-06	 -179.96°	 -180.33°
   16   	1.600e+04	2.193e-05	6.052e-06	 -179.97°	 -180.33°
   17   	1.700e+04	2.063e-05	5.694e-06	 -179.96°	 -180.32°
   18   	1.800e+04	1.949e-05	5.378e-06	 -179.98°	 -180.34°
   19   	1.900e+04	1.846e-05	5.096e-06	 -179.98°	 -180.35°
   20   	2.000e+04	1.754e-05	4.841e-06	 -179.98°	 -180.34°
   21   	2.100e+04	1.670e-05	4.610e-06	 -179.98°	 -180.34°
   22   	2.200e+04	1.594e-05	4.401e-06	 -179.98°	 -180.35°
   23   	2.300e+04	1.525e-05	4.210e-06	 -179.98°	 -180.35°
   24   	2.400e+04	1.462e-05	4.034e-06	 -179.98°	 -180.34°
   25   	2.500e+04	1.403e-05	3.872e-06	 -179.98°	 -180.35°
   26   	2.600e+04	1.349e-05	3.724e-06	 -179.99°	 -180.35°
   27   	2.700e+04	1.299e-05	3.586e-06	 -179.98°	 -180.35°
   28   	2.800e+04	1.253e-05	3.458e-06	 -179.98°	 -180.35°
   29   	2.900e+04	1.210e-05	3.338e-06	 -179.99°	 -180.35°
   30   	3.000e+04	1.169e-05	3.227e-06	 -179.99°	 -180.35°
Total Harmonic Distortion: 0.008010%(0.048773%)

.step vpin=0.175
N-Period=4
Fourier components of V(out)
DC component:-0.0272446

Harmonic	Frequency	 Fourier 	Normalized	 Phase  	Normalized
 Number 	  [Hz]   	Component	 Component	[degree]	Phase [deg]
    1   	1.000e+03	4.227e+00	1.000e+00	    0.36°	    0.00°
    2   	2.000e+03	2.298e-04	5.436e-05	  179.05°	  178.68°
    3   	3.000e+03	1.362e-04	3.223e-05	 -179.11°	 -179.48°
    4   	4.000e+03	1.099e-04	2.600e-05	 -179.94°	 -180.30°
    5   	5.000e+03	8.216e-05	1.944e-05	  177.10°	  176.73°
    6   	6.000e+03	7.004e-05	1.657e-05	 -179.94°	 -180.31°
    7   	7.000e+03	5.862e-05	1.387e-05	  177.73°	  177.37°
    8   	8.000e+03	5.123e-05	1.212e-05	 -179.98°	 -180.34°
    9   	9.000e+03	4.551e-05	1.077e-05	  179.05°	  178.68°
   10   	1.000e+04	4.071e-05	9.631e-06	 -179.99°	 -180.35°
   11   	1.100e+04	3.720e-05	8.801e-06	  179.76°	  179.40°
   12   	1.200e+04	3.398e-05	8.038e-06	 -179.98°	 -180.34°
   13   	1.300e+04	3.147e-05	7.445e-06	 -179.95°	 -180.32°
   14   	1.400e+04	2.918e-05	6.903e-06	 -179.98°	 -180.34°
   15   	1.500e+04	2.728e-05	6.454e-06	 -179.94°	 -180.30°
   16   	1.600e+04	2.557e-05	6.049e-06	 -179.97°	 -180.33°
   17   	1.700e+04	2.407e-05	5.694e-06	 -179.94°	 -180.30°
   18   	1.800e+04	2.273e-05	5.378e-06	 -179.98°	 -180.34°
   19   	1.900e+04	2.154e-05	5.096e-06	 -179.97°	 -180.34°
   20   	2.000e+04	2.047e-05	4.842e-06	 -179.97°	 -180.34°
   21   	2.100e+04	1.949e-05	4.610e-06	 -179.97°	 -180.34°
   22   	2.200e+04	1.860e-05	4.401e-06	 -179.98°	 -180.35°
   23   	2.300e+04	1.779e-05	4.210e-06	 -179.98°	 -180.35°
   24   	2.400e+04	1.705e-05	4.034e-06	 -179.98°	 -180.34°
   25   	2.500e+04	1.637e-05	3.872e-06	 -179.98°	 -180.35°
   26   	2.600e+04	1.574e-05	3.724e-06	 -179.99°	 -180.35°
   27   	2.700e+04	1.516e-05	3.586e-06	 -179.98°	 -180.35°
   28   	2.800e+04	1.462e-05	3.458e-06	 -179.98°	 -180.35°
   29   	2.900e+04	1.411e-05	3.338e-06	 -179.99°	 -180.35°
   30   	3.000e+04	1.364e-05	3.227e-06	 -179.99°	 -180.35°
Total Harmonic Distortion: 0.008034%(0.048776%)

.step vpin=0.2
N-Period=4
Fourier components of V(out)
DC component:-0.0310772

Harmonic	Frequency	 Fourier 	Normalized	 Phase  	Normalized
 Number 	  [Hz]   	Component	 Component	[degree]	Phase [deg]
    1   	1.000e+03	4.831e+00	1.000e+00	    0.36°	    0.00°
    2   	2.000e+03	2.627e-04	5.438e-05	  178.91°	  178.55°
    3   	3.000e+03	1.557e-04	3.222e-05	 -178.00°	 -178.36°
    4   	4.000e+03	1.269e-04	2.627e-05	 -179.95°	 -180.31°
    5   	5.000e+03	9.391e-05	1.944e-05	  177.28°	  176.91°
    6   	6.000e+03	8.116e-05	1.680e-05	 -179.94°	 -180.30°
    7   	7.000e+03	6.709e-05	1.389e-05	  177.11°	  176.75°
    8   	8.000e+03	5.902e-05	1.222e-05	 -179.97°	 -180.34°
    9   	9.000e+03	5.207e-05	1.078e-05	  178.37°	  178.00°
   10   	1.000e+04	4.659e-05	9.644e-06	  180.00°	  179.63°
   11   	1.100e+04	4.254e-05	8.805e-06	  179.36°	  178.99°
   12   	1.200e+04	3.876e-05	8.024e-06	 -180.00°	 -180.36°
   13   	1.300e+04	3.597e-05	7.445e-06	  179.90°	  179.53°
   14   	1.400e+04	3.328e-05	6.889e-06	 -179.99°	 -180.35°
   15   	1.500e+04	3.117e-05	6.453e-06	 -179.96°	 -180.32°
   16   	1.600e+04	2.919e-05	6.042e-06	 -179.97°	 -180.34°
   17   	1.700e+04	2.750e-05	5.693e-06	 -179.91°	 -180.27°
   18   	1.800e+04	2.597e-05	5.376e-06	 -179.98°	 -180.34°
   19   	1.900e+04	2.462e-05	5.096e-06	 -179.95°	 -180.32°
   20   	2.000e+04	2.339e-05	4.841e-06	 -179.97°	 -180.34°
   21   	2.100e+04	2.227e-05	4.610e-06	 -179.96°	 -180.32°
   22   	2.200e+04	2.126e-05	4.401e-06	 -179.98°	 -180.35°
   23   	2.300e+04	2.034e-05	4.210e-06	 -179.98°	 -180.35°
   24   	2.400e+04	1.949e-05	4.035e-06	 -179.98°	 -180.34°
   25   	2.500e+04	1.871e-05	3.872e-06	 -179.98°	 -180.34°
   26   	2.600e+04	1.799e-05	3.724e-06	 -179.99°	 -180.35°
   27   	2.700e+04	1.732e-05	3.586e-06	 -179.99°	 -180.35°
   28   	2.800e+04	1.670e-05	3.458e-06	 -179.98°	 -180.35°
   29   	2.900e+04	1.613e-05	3.338e-06	 -179.99°	 -180.35°
   30   	3.000e+04	1.559e-05	3.227e-06	 -179.99°	 -180.35°
Total Harmonic Distortion: 0.008050%(0.048779%)

.step vpin=0.225
N-Period=4
Fourier components of V(out)
DC component:-0.0349099

Harmonic	Frequency	 Fourier 	Normalized	 Phase  	Normalized
 Number 	  [Hz]   	Component	 Component	[degree]	Phase [deg]
    1   	1.000e+03	5.435e+00	1.000e+00	    0.36°	    0.00°
    2   	2.000e+03	2.954e-04	5.436e-05	  178.79°	  178.42°
    3   	3.000e+03	1.751e-04	3.222e-05	 -176.96°	 -177.32°
    4   	4.000e+03	1.438e-04	2.646e-05	 -179.96°	 -180.32°
    5   	5.000e+03	1.056e-04	1.943e-05	  177.75°	  177.38°
    6   	6.000e+03	9.247e-05	1.701e-05	 -179.93°	 -180.30°
    7   	7.000e+03	7.557e-05	1.390e-05	  176.73°	  176.37°
    8   	8.000e+03	6.708e-05	1.234e-05	 -179.96°	 -180.33°
    9   	9.000e+03	5.866e-05	1.079e-05	  177.70°	  177.33°
   10   	1.000e+04	5.264e-05	9.685e-06	  180.00°	  179.63°
   11   	1.100e+04	4.789e-05	8.813e-06	  178.82°	  178.45°
   12   	1.200e+04	4.359e-05	8.021e-06	  179.99°	  179.62°
   13   	1.300e+04	4.047e-05	7.447e-06	  179.60°	  179.24°
   14   	1.400e+04	3.737e-05	6.875e-06	  179.99°	  179.63°
   15   	1.500e+04	3.507e-05	6.453e-06	  179.94°	  179.57°
   16   	1.600e+04	3.278e-05	6.031e-06	 -179.99°	 -180.35°
   17   	1.700e+04	3.094e-05	5.692e-06	 -179.92°	 -180.28°
   18   	1.800e+04	2.918e-05	5.370e-06	 -179.98°	 -180.35°
   19   	1.900e+04	2.769e-05	5.095e-06	 -179.93°	 -180.29°
   20   	2.000e+04	2.630e-05	4.839e-06	 -179.97°	 -180.34°
   21   	2.100e+04	2.505e-05	4.609e-06	 -179.93°	 -180.30°
   22   	2.200e+04	2.391e-05	4.400e-06	 -179.98°	 -180.34°
   23   	2.300e+04	2.288e-05	4.210e-06	 -179.97°	 -180.33°
   24   	2.400e+04	2.193e-05	4.035e-06	 -179.98°	 -180.34°
   25   	2.500e+04	2.104e-05	3.872e-06	 -179.97°	 -180.34°
   26   	2.600e+04	2.024e-05	3.724e-06	 -179.98°	 -180.35°
   27   	2.700e+04	1.949e-05	3.586e-06	 -179.99°	 -180.35°
   28   	2.800e+04	1.879e-05	3.458e-06	 -179.98°	 -180.35°
   29   	2.900e+04	1.814e-05	3.338e-06	 -179.99°	 -180.35°
   30   	3.000e+04	1.754e-05	3.227e-06	 -179.99°	 -180.35°
Total Harmonic Distortion: 0.008062%(0.048780%)

.step vpin=0.25
N-Period=4
Fourier components of V(out)
DC component:-0.0387428

Harmonic	Frequency	 Fourier 	Normalized	 Phase  	Normalized
 Number 	  [Hz]   	Component	 Component	[degree]	Phase [deg]
    1   	1.000e+03	6.039e+00	1.000e+00	    0.36°	    0.00°
    2   	2.000e+03	3.280e-04	5.431e-05	  178.66°	  178.29°
    3   	3.000e+03	1.946e-04	3.222e-05	 -176.04°	 -176.40°
    4   	4.000e+03	1.605e-04	2.659e-05	 -179.97°	 -180.33°
    5   	5.000e+03	1.173e-04	1.942e-05	  178.40°	  178.04°
    6   	6.000e+03	1.039e-04	1.720e-05	 -179.93°	 -180.29°
    7   	7.000e+03	8.402e-05	1.391e-05	  176.60°	  176.24°
    8   	8.000e+03	7.536e-05	1.248e-05	 -179.95°	 -180.32°
    9   	9.000e+03	6.527e-05	1.081e-05	  177.13°	  176.76°
   10   	1.000e+04	5.888e-05	9.750e-06	 -180.00°	 -180.36°
   11   	1.100e+04	5.328e-05	8.823e-06	  178.22°	  177.86°
   12   	1.200e+04	4.853e-05	8.036e-06	  179.98°	  179.61°
   13   	1.300e+04	4.500e-05	7.452e-06	  179.18°	  178.82°
   14   	1.400e+04	4.147e-05	6.868e-06	  179.98°	  179.61°
   15   	1.500e+04	3.897e-05	6.454e-06	  179.72°	  179.36°
   16   	1.600e+04	3.635e-05	6.019e-06	  179.99°	  179.63°
   17   	1.700e+04	3.437e-05	5.692e-06	 -179.99°	 -180.35°
   18   	1.800e+04	3.237e-05	5.360e-06	 -179.99°	 -180.36°
   19   	1.900e+04	3.076e-05	5.094e-06	 -179.93°	 -180.30°
   20   	2.000e+04	2.919e-05	4.834e-06	 -179.98°	 -180.34°
   21   	2.100e+04	2.783e-05	4.608e-06	 -179.91°	 -180.27°
   22   	2.200e+04	2.656e-05	4.398e-06	 -179.98°	 -180.34°
   23   	2.300e+04	2.542e-05	4.209e-06	 -179.95°	 -180.31°
   24   	2.400e+04	2.436e-05	4.034e-06	 -179.97°	 -180.34°
   25   	2.500e+04	2.338e-05	3.872e-06	 -179.95°	 -180.32°
   26   	2.600e+04	2.249e-05	3.724e-06	 -179.98°	 -180.35°
   27   	2.700e+04	2.165e-05	3.586e-06	 -179.98°	 -180.34°
   28   	2.800e+04	2.088e-05	3.458e-06	 -179.98°	 -180.34°
   29   	2.900e+04	2.016e-05	3.338e-06	 -179.98°	 -180.35°
   30   	3.000e+04	1.949e-05	3.227e-06	 -179.99°	 -180.35°
Total Harmonic Distortion: 0.008070%(0.048781%)

.step vpin=0.275
N-Period=4
Fourier components of V(out)
DC component:-0.0425758

Harmonic	Frequency	 Fourier 	Normalized	 Phase  	Normalized
 Number 	  [Hz]   	Component	 Component	[degree]	Phase [deg]
    1   	1.000e+03	6.642e+00	1.000e+00	    0.36°	    0.00°
    2   	2.000e+03	3.604e-04	5.426e-05	  178.53°	  178.17°
    3   	3.000e+03	2.141e-04	3.223e-05	 -175.25°	 -175.62°
    4   	4.000e+03	1.771e-04	2.667e-05	 -179.98°	 -180.34°
    5   	5.000e+03	1.289e-04	1.941e-05	  179.17°	  178.80°
    6   	6.000e+03	1.153e-04	1.735e-05	 -179.93°	 -180.29°
    7   	7.000e+03	9.245e-05	1.392e-05	  176.70°	  176.33°
    8   	8.000e+03	8.378e-05	1.261e-05	 -179.94°	 -180.30°
    9   	9.000e+03	7.190e-05	1.082e-05	  176.71°	  176.35°
   10   	1.000e+04	6.530e-05	9.831e-06	 -179.99°	 -180.35°
   11   	1.100e+04	5.869e-05	8.836e-06	  177.65°	  177.28°
   12   	1.200e+04	5.360e-05	8.069e-06	  179.98°	  179.61°
   13   	1.300e+04	4.955e-05	7.460e-06	  178.68°	  178.32°
   14   	1.400e+04	4.564e-05	6.871e-06	  179.96°	  179.60°
   15   	1.500e+04	4.289e-05	6.457e-06	  179.39°	  179.03°
   16   	1.600e+04	3.992e-05	6.010e-06	  179.97°	  179.61°
   17   	1.700e+04	3.781e-05	5.693e-06	  179.85°	  179.48°
   18   	1.800e+04	3.554e-05	5.350e-06	  179.99°	  179.62°
   19   	1.900e+04	3.383e-05	5.093e-06	 -179.99°	 -180.35°
   20   	2.000e+04	3.206e-05	4.827e-06	 -179.99°	 -180.36°
   21   	2.100e+04	3.061e-05	4.608e-06	 -179.90°	 -180.27°
   22   	2.200e+04	2.918e-05	4.394e-06	 -179.98°	 -180.35°
   23   	2.300e+04	2.795e-05	4.208e-06	 -179.92°	 -180.29°
   24   	2.400e+04	2.678e-05	4.032e-06	 -179.98°	 -180.34°
   25   	2.500e+04	2.572e-05	3.871e-06	 -179.93°	 -180.29°
   26   	2.600e+04	2.473e-05	3.723e-06	 -179.98°	 -180.34°
   27   	2.700e+04	2.382e-05	3.586e-06	 -179.96°	 -180.33°
   28   	2.800e+04	2.297e-05	3.458e-06	 -179.98°	 -180.34°
   29   	2.900e+04	2.217e-05	3.338e-06	 -179.97°	 -180.33°
   30   	3.000e+04	2.144e-05	3.227e-06	 -179.98°	 -180.35°
Total Harmonic Distortion: 0.008076%(0.048782%)

.step vpin=0.3
N-Period=4
Fourier components of V(out)
DC component:-0.0464089

Harmonic	Frequency	 Fourier 	Normalized	 Phase  	Normalized
 Number 	  [Hz]   	Component	 Component	[degree]	Phase [deg]
    1   	1.000e+03	7.246e+00	1.000e+00	    0.36°	    0.00°
    2   	2.000e+03	3.928e-04	5.421e-05	  178.41°	  178.04°
    3   	3.000e+03	2.335e-04	3.223e-05	 -174.60°	 -174.96°
    4   	4.000e+03	1.936e-04	2.672e-05	 -179.98°	 -180.35°
    5   	5.000e+03	1.406e-04	1.940e-05	  179.98°	  179.61°
    6   	6.000e+03	1.266e-04	1.747e-05	 -179.93°	 -180.30°
    7   	7.000e+03	1.008e-04	1.392e-05	  176.97°	  176.61°
    8   	8.000e+03	9.230e-05	1.274e-05	 -179.93°	 -180.29°
    9   	9.000e+03	7.852e-05	1.084e-05	  176.47°	  176.11°
   10   	1.000e+04	7.188e-05	9.919e-06	 -179.97°	 -180.34°
   11   	1.100e+04	6.413e-05	8.850e-06	  177.14°	  176.78°
   12   	1.200e+04	5.880e-05	8.115e-06	  179.98°	  179.62°
   13   	1.300e+04	5.413e-05	7.470e-06	  178.16°	  177.79°
   14   	1.400e+04	4.990e-05	6.886e-06	  179.96°	  179.59°
   15   	1.500e+04	4.682e-05	6.462e-06	  178.98°	  178.62°
   16   	1.600e+04	4.354e-05	6.008e-06	  179.96°	  179.59°
   17   	1.700e+04	4.126e-05	5.695e-06	  179.59°	  179.22°
   18   	1.800e+04	3.871e-05	5.342e-06	  179.97°	  179.60°
   19   	1.900e+04	3.691e-05	5.093e-06	  179.89°	  179.52°
   20   	2.000e+04	3.491e-05	4.818e-06	  179.99°	  179.63°
   21   	2.100e+04	3.338e-05	4.607e-06	 -179.94°	 -180.30°
   22   	2.200e+04	3.179e-05	4.387e-06	 -180.00°	 -180.36°
   23   	2.300e+04	3.049e-05	4.208e-06	 -179.92°	 -180.28°
   24   	2.400e+04	2.919e-05	4.029e-06	 -179.98°	 -180.35°
   25   	2.500e+04	2.805e-05	3.871e-06	 -179.90°	 -180.27°
   26   	2.600e+04	2.697e-05	3.721e-06	 -179.98°	 -180.35°
   27   	2.700e+04	2.598e-05	3.585e-06	 -179.94°	 -180.30°
   28   	2.800e+04	2.506e-05	3.458e-06	 -179.98°	 -180.34°
   29   	2.900e+04	2.419e-05	3.338e-06	 -179.95°	 -180.31°
   30   	3.000e+04	2.339e-05	3.227e-06	 -179.98°	 -180.35°
Total Harmonic Distortion: 0.008081%(0.048783%)

.step vpin=0.325
N-Period=4
Fourier components of V(out)
DC component:-0.0502423

Harmonic	Frequency	 Fourier 	Normalized	 Phase  	Normalized
 Number 	  [Hz]   	Component	 Component	[degree]	Phase [deg]
    1   	1.000e+03	7.850e+00	1.000e+00	    0.36°	    0.00°
    2   	2.000e+03	4.252e-04	5.416e-05	  178.28°	  177.92°
    3   	3.000e+03	2.530e-04	3.222e-05	 -174.07°	 -174.43°
    4   	4.000e+03	2.099e-04	2.674e-05	 -179.99°	 -180.35°
    5   	5.000e+03	1.523e-04	1.940e-05	 -179.21°	 -179.58°
    6   	6.000e+03	1.379e-04	1.757e-05	 -179.94°	 -180.30°
    7   	7.000e+03	1.092e-04	1.391e-05	  177.38°	  177.02°
    8   	8.000e+03	1.009e-04	1.285e-05	 -179.92°	 -180.29°
    9   	9.000e+03	8.512e-05	1.084e-05	  176.39°	  176.02°
   10   	1.000e+04	7.857e-05	1.001e-05	 -179.96°	 -180.32°
   11   	1.100e+04	6.957e-05	8.862e-06	  176.74°	  176.38°
   12   	1.200e+04	6.414e-05	8.170e-06	  180.00°	  179.63°
   13   	1.300e+04	5.872e-05	7.481e-06	  177.65°	  177.29°
   14   	1.400e+04	5.426e-05	6.912e-06	  179.96°	  179.59°
   15   	1.500e+04	5.078e-05	6.469e-06	  178.53°	  178.16°
   16   	1.600e+04	4.721e-05	6.014e-06	  179.95°	  179.58°
   17   	1.700e+04	4.473e-05	5.698e-06	  179.26°	  178.89°
   18   	1.800e+04	4.190e-05	5.337e-06	  179.95°	  179.58°
   19   	1.900e+04	3.999e-05	5.095e-06	  179.68°	  179.32°
   20   	2.000e+04	3.776e-05	4.810e-06	  179.97°	  179.61°
   21   	2.100e+04	3.616e-05	4.607e-06	  179.96°	  179.60°
   22   	2.200e+04	3.438e-05	4.380e-06	  179.99°	  179.62°
   23   	2.300e+04	3.302e-05	4.207e-06	 -179.95°	 -180.31°
   24   	2.400e+04	3.158e-05	4.023e-06	 -179.99°	 -180.36°
   25   	2.500e+04	3.038e-05	3.870e-06	 -179.89°	 -180.26°
   26   	2.600e+04	2.919e-05	3.718e-06	 -179.99°	 -180.35°
   27   	2.700e+04	2.814e-05	3.585e-06	 -179.92°	 -180.28°
   28   	2.800e+04	2.713e-05	3.456e-06	 -179.98°	 -180.34°
   29   	2.900e+04	2.620e-05	3.337e-06	 -179.92°	 -180.29°
   30   	3.000e+04	2.533e-05	3.227e-06	 -179.98°	 -180.34°
Total Harmonic Distortion: 0.008084%(0.048783%)

.step vpin=0.35
N-Period=4
Fourier components of V(out)
DC component:-0.0540757

Harmonic	Frequency	 Fourier 	Normalized	 Phase  	Normalized
 Number 	  [Hz]   	Component	 Component	[degree]	Phase [deg]
    1   	1.000e+03	8.454e+00	1.000e+00	    0.36°	    0.00°
    2   	2.000e+03	4.575e-04	5.412e-05	  178.16°	  177.80°
    3   	3.000e+03	2.724e-04	3.222e-05	 -173.65°	 -174.01°
    4   	4.000e+03	2.262e-04	2.675e-05	 -179.99°	 -180.36°
    5   	5.000e+03	1.639e-04	1.939e-05	 -178.43°	 -178.79°
    6   	6.000e+03	1.491e-04	1.764e-05	 -179.94°	 -180.31°
    7   	7.000e+03	1.176e-04	1.391e-05	  177.88°	  177.52°
    8   	8.000e+03	1.094e-04	1.294e-05	 -179.92°	 -180.28°
    9   	9.000e+03	9.170e-05	1.085e-05	  176.45°	  176.09°
   10   	1.000e+04	8.534e-05	1.009e-05	 -179.94°	 -180.31°
   11   	1.100e+04	7.501e-05	8.873e-06	  176.46°	  176.10°
   12   	1.200e+04	6.959e-05	8.231e-06	 -179.99°	 -180.35°
   13   	1.300e+04	6.334e-05	7.492e-06	  177.20°	  176.84°
   14   	1.400e+04	5.872e-05	6.946e-06	  179.96°	  179.60°
   15   	1.500e+04	5.476e-05	6.478e-06	  178.06°	  177.70°
   16   	1.600e+04	5.095e-05	6.027e-06	  179.94°	  179.57°
   17   	1.700e+04	4.822e-05	5.704e-06	  178.87°	  178.50°
   18   	1.800e+04	4.512e-05	5.338e-06	  179.93°	  179.57°
   19   	1.900e+04	4.309e-05	5.097e-06	  179.41°	  179.05°
   20   	2.000e+04	4.062e-05	4.805e-06	  179.95°	  179.58°
   21   	2.100e+04	3.895e-05	4.608e-06	  179.80°	  179.44°
   22   	2.200e+04	3.697e-05	4.373e-06	  179.97°	  179.60°
   23   	2.300e+04	3.556e-05	4.207e-06	  179.97°	  179.61°
   24   	2.400e+04	3.396e-05	4.017e-06	  179.99°	  179.63°
   25   	2.500e+04	3.271e-05	3.869e-06	 -179.91°	 -180.28°
   26   	2.600e+04	3.139e-05	3.713e-06	 -180.00°	 -180.36°
   27   	2.700e+04	3.030e-05	3.584e-06	 -179.91°	 -180.27°
   28   	2.800e+04	2.919e-05	3.453e-06	 -179.98°	 -180.35°
   29   	2.900e+04	2.821e-05	3.337e-06	 -179.90°	 -180.27°
   30   	3.000e+04	2.726e-05	3.225e-06	 -179.98°	 -180.35°
Total Harmonic Distortion: 0.008086%(0.048783%)

.step vpin=0.375
N-Period=4
Fourier components of V(out)
DC component:-0.0579094

Harmonic	Frequency	 Fourier 	Normalized	 Phase  	Normalized
 Number 	  [Hz]   	Component	 Component	[degree]	Phase [deg]
    1   	1.000e+03	9.058e+00	1.000e+00	    0.36°	    0.00°
    2   	2.000e+03	4.899e-04	5.408e-05	  178.04°	  177.67°
    3   	3.000e+03	2.917e-04	3.220e-05	 -173.32°	 -173.69°
    4   	4.000e+03	2.423e-04	2.675e-05	 -179.99°	 -180.36°
    5   	5.000e+03	1.756e-04	1.939e-05	 -177.68°	 -178.05°
    6   	6.000e+03	1.603e-04	1.769e-05	 -179.95°	 -180.31°
    7   	7.000e+03	1.259e-04	1.390e-05	  178.44°	  178.08°
    8   	8.000e+03	1.180e-04	1.302e-05	 -179.91°	 -180.28°
    9   	9.000e+03	9.826e-05	1.085e-05	  176.63°	  176.26°
   10   	1.000e+04	9.216e-05	1.017e-05	 -179.93°	 -180.30°
   11   	1.100e+04	8.045e-05	8.882e-06	  176.30°	  175.93°
   12   	1.200e+04	7.512e-05	8.294e-06	 -179.97°	 -180.34°
   13   	1.300e+04	6.796e-05	7.503e-06	  176.83°	  176.46°
   14   	1.400e+04	6.328e-05	6.986e-06	  179.98°	  179.61°
   15   	1.500e+04	5.876e-05	6.487e-06	  177.62°	  177.25°
   16   	1.600e+04	5.478e-05	6.047e-06	  179.94°	  179.58°
   17   	1.700e+04	5.172e-05	5.710e-06	  178.45°	  178.09°
   18   	1.800e+04	4.841e-05	5.344e-06	  179.92°	  179.56°
   19   	1.900e+04	4.620e-05	5.101e-06	  179.08°	  178.72°
   20   	2.000e+04	4.350e-05	4.803e-06	  179.93°	  179.57°
   21   	2.100e+04	4.175e-05	4.610e-06	  179.58°	  179.21°
   22   	2.200e+04	3.956e-05	4.367e-06	  179.94°	  179.58°
   23   	2.300e+04	3.811e-05	4.207e-06	  179.84°	  179.48°
   24   	2.400e+04	3.633e-05	4.011e-06	  179.97°	  179.60°
   25   	2.500e+04	3.504e-05	3.869e-06	 -179.97°	 -180.34°
   26   	2.600e+04	3.359e-05	3.708e-06	  179.99°	  179.62°
   27   	2.700e+04	3.246e-05	3.583e-06	 -179.93°	 -180.29°
   28   	2.800e+04	3.124e-05	3.449e-06	 -179.99°	 -180.36°
   29   	2.900e+04	3.022e-05	3.336e-06	 -179.89°	 -180.25°
   30   	3.000e+04	2.919e-05	3.223e-06	 -179.99°	 -180.35°
Total Harmonic Distortion: 0.008088%(0.048783%)

.step vpin=0.4
N-Period=4
Fourier components of V(out)
DC component:-0.0617432

Harmonic	Frequency	 Fourier 	Normalized	 Phase  	Normalized
 Number 	  [Hz]   	Component	 Component	[degree]	Phase [deg]
    1   	1.000e+03	9.662e+00	1.000e+00	    0.36°	    0.00°
    2   	2.000e+03	5.222e-04	5.405e-05	  177.91°	  177.54°
    3   	3.000e+03	3.110e-04	3.218e-05	 -173.08°	 -173.45°
    4   	4.000e+03	2.584e-04	2.674e-05	 -179.99°	 -180.36°
    5   	5.000e+03	1.874e-04	1.939e-05	 -176.99°	 -177.35°
    6   	6.000e+03	1.714e-04	1.774e-05	 -179.96°	 -180.32°
    7   	7.000e+03	1.342e-04	1.389e-05	  179.03°	  178.67°
    8   	8.000e+03	1.265e-04	1.309e-05	 -179.91°	 -180.28°
    9   	9.000e+03	1.048e-04	1.085e-05	  176.90°	  176.54°
   10   	1.000e+04	9.901e-05	1.025e-05	 -179.92°	 -180.29°
   11   	1.100e+04	8.587e-05	8.888e-06	  176.24°	  175.88°
   12   	1.200e+04	8.073e-05	8.356e-06	 -179.96°	 -180.32°
   13   	1.300e+04	7.259e-05	7.513e-06	  176.54°	  176.17°
   14   	1.400e+04	6.793e-05	7.030e-06	  179.99°	  179.63°
   15   	1.500e+04	6.277e-05	6.497e-06	  177.21°	  176.85°
   16   	1.600e+04	5.868e-05	6.074e-06	  179.95°	  179.58°
   17   	1.700e+04	5.525e-05	5.718e-06	  178.04°	  177.67°
   18   	1.800e+04	5.175e-05	5.356e-06	  179.92°	  179.55°
   19   	1.900e+04	4.933e-05	5.106e-06	  178.72°	  178.36°
   20   	2.000e+04	4.642e-05	4.805e-06	  179.92°	  179.55°
   21   	2.100e+04	4.456e-05	4.613e-06	  179.30°	  178.94°
   22   	2.200e+04	4.216e-05	4.364e-06	  179.92°	  179.56°
   23   	2.300e+04	4.066e-05	4.208e-06	  179.66°	  179.29°
   24   	2.400e+04	3.870e-05	4.006e-06	  179.95°	  179.58°
   25   	2.500e+04	3.738e-05	3.869e-06	  179.92°	  179.55°
   26   	2.600e+04	3.577e-05	3.703e-06	  179.97°	  179.60°
   27   	2.700e+04	3.461e-05	3.583e-06	 -179.98°	 -180.34°
   28   	2.800e+04	3.328e-05	3.445e-06	  179.99°	  179.63°
   29   	2.900e+04	3.222e-05	3.335e-06	 -179.90°	 -180.26°
   30   	3.000e+04	3.110e-05	3.219e-06	 -180.00°	 -180.36°
Total Harmonic Distortion: 0.008089%(0.048783%)

.step vpin=0.425
N-Period=4
Fourier components of V(out)
DC component:-0.0655771

Harmonic	Frequency	 Fourier 	Normalized	 Phase  	Normalized
 Number 	  [Hz]   	Component	 Component	[degree]	Phase [deg]
    1   	1.000e+03	1.027e+01	1.000e+00	    0.36°	    0.00°
    2   	2.000e+03	5.545e-04	5.402e-05	  177.78°	  177.42°
    3   	3.000e+03	3.301e-04	3.216e-05	 -172.91°	 -173.28°
    4   	4.000e+03	2.744e-04	2.673e-05	 -179.99°	 -180.35°
    5   	5.000e+03	1.991e-04	1.939e-05	 -176.35°	 -176.71°
    6   	6.000e+03	1.824e-04	1.776e-05	 -179.96°	 -180.33°
    7   	7.000e+03	1.425e-04	1.388e-05	  179.64°	  179.27°
    8   	8.000e+03	1.350e-04	1.315e-05	 -179.91°	 -180.28°
    9   	9.000e+03	1.113e-04	1.084e-05	  177.25°	  176.88°
   10   	1.000e+04	1.059e-04	1.031e-05	 -179.91°	 -180.28°
   11   	1.100e+04	9.127e-05	8.891e-06	  176.28°	  175.92°
   12   	1.200e+04	8.639e-05	8.415e-06	 -179.94°	 -180.31°
   13   	1.300e+04	7.721e-05	7.521e-06	  176.33°	  175.97°
   14   	1.400e+04	7.264e-05	7.076e-06	 -179.99°	 -180.36°
   15   	1.500e+04	6.679e-05	6.506e-06	  176.87°	  176.50°
   16   	1.600e+04	6.266e-05	6.104e-06	  179.96°	  179.59°
   17   	1.700e+04	5.879e-05	5.727e-06	  177.64°	  177.27°
   18   	1.800e+04	5.515e-05	5.372e-06	  179.92°	  179.56°
   19   	1.900e+04	5.248e-05	5.112e-06	  178.34°	  177.98°
   20   	2.000e+04	4.939e-05	4.811e-06	  179.91°	  179.54°
   21   	2.100e+04	4.739e-05	4.617e-06	  178.99°	  178.62°
   22   	2.200e+04	4.480e-05	4.364e-06	  179.91°	  179.54°
   23   	2.300e+04	4.322e-05	4.210e-06	  179.42°	  179.06°
   24   	2.400e+04	4.108e-05	4.002e-06	  179.93°	  179.56°
   25   	2.500e+04	3.973e-05	3.870e-06	  179.76°	  179.40°
   26   	2.600e+04	3.796e-05	3.697e-06	  179.94°	  179.58°
   27   	2.700e+04	3.678e-05	3.583e-06	  179.93°	  179.57°
   28   	2.800e+04	3.531e-05	3.440e-06	  179.97°	  179.61°
   29   	2.900e+04	3.423e-05	3.335e-06	 -179.94°	 -180.30°
   30   	3.000e+04	3.300e-05	3.215e-06	  179.99°	  179.62°
Total Harmonic Distortion: 0.008089%(0.048783%)

.step vpin=0.45
N-Period=4
Fourier components of V(out)
DC component:-0.0694112

Harmonic	Frequency	 Fourier 	Normalized	 Phase  	Normalized
 Number 	  [Hz]   	Component	 Component	[degree]	Phase [deg]
    1   	1.000e+03	1.087e+01	1.000e+00	    0.36°	    0.00°
    2   	2.000e+03	5.869e-04	5.400e-05	  177.65°	  177.29°
    3   	3.000e+03	3.492e-04	3.213e-05	 -172.81°	 -173.17°
    4   	4.000e+03	2.904e-04	2.671e-05	 -179.98°	 -180.35°
    5   	5.000e+03	2.108e-04	1.940e-05	 -175.76°	 -176.12°
    6   	6.000e+03	1.933e-04	1.779e-05	 -179.97°	 -180.34°
    7   	7.000e+03	1.508e-04	1.388e-05	 -179.76°	 -180.13°
    8   	8.000e+03	1.434e-04	1.320e-05	 -179.92°	 -180.28°
    9   	9.000e+03	1.178e-04	1.084e-05	  177.65°	  177.28°
   10   	1.000e+04	1.127e-04	1.037e-05	 -179.91°	 -180.27°
   11   	1.100e+04	9.666e-05	8.893e-06	  176.41°	  176.05°
   12   	1.200e+04	9.207e-05	8.471e-06	 -179.93°	 -180.29°
   13   	1.300e+04	8.183e-05	7.528e-06	  176.22°	  175.85°
   14   	1.400e+04	7.742e-05	7.122e-06	 -179.98°	 -180.34°
   15   	1.500e+04	7.082e-05	6.515e-06	  176.58°	  176.22°
   16   	1.600e+04	6.670e-05	6.137e-06	  179.97°	  179.61°
   17   	1.700e+04	6.234e-05	5.735e-06	  177.27°	  176.91°
   18   	1.800e+04	5.862e-05	5.393e-06	  179.93°	  179.56°
   19   	1.900e+04	5.564e-05	5.119e-06	  177.97°	  177.60°
   20   	2.000e+04	5.240e-05	4.821e-06	  179.90°	  179.54°
   21   	2.100e+04	5.023e-05	4.622e-06	  178.65°	  178.29°
   22   	2.200e+04	4.746e-05	4.367e-06	  179.89°	  179.53°
   23   	2.300e+04	4.580e-05	4.213e-06	  179.15°	  178.79°
   24   	2.400e+04	4.348e-05	4.000e-06	  179.91°	  179.54°
   25   	2.500e+04	4.208e-05	3.872e-06	  179.57°	  179.20°
   26   	2.600e+04	4.015e-05	3.694e-06	  179.92°	  179.56°
   27   	2.700e+04	3.895e-05	3.583e-06	  179.80°	  179.44°
   28   	2.800e+04	3.734e-05	3.435e-06	  179.95°	  179.58°
   29   	2.900e+04	3.625e-05	3.335e-06	  179.99°	  179.62°
   30   	3.000e+04	3.490e-05	3.211e-06	  179.97°	  179.60°
Total Harmonic Distortion: 0.008090%(0.048783%)

.step vpin=0.475
N-Period=4
Fourier components of V(out)
DC component:-0.0732455

Harmonic	Frequency	 Fourier 	Normalized	 Phase  	Normalized
 Number 	  [Hz]   	Component	 Component	[degree]	Phase [deg]
    1   	1.000e+03	1.147e+01	1.000e+00	    0.36°	    0.00°
    2   	2.000e+03	6.193e-04	5.397e-05	  177.52°	  177.16°
    3   	3.000e+03	3.682e-04	3.210e-05	 -172.76°	 -173.13°
    4   	4.000e+03	3.063e-04	2.670e-05	 -179.97°	 -180.34°
    5   	5.000e+03	2.226e-04	1.940e-05	 -175.21°	 -175.58°
    6   	6.000e+03	2.042e-04	1.780e-05	 -179.98°	 -180.35°
    7   	7.000e+03	1.592e-04	1.387e-05	 -179.19°	 -179.56°
    8   	8.000e+03	1.519e-04	1.324e-05	 -179.92°	 -180.28°
    9   	9.000e+03	1.242e-04	1.083e-05	  178.11°	  177.74°
   10   	1.000e+04	1.195e-04	1.042e-05	 -179.91°	 -180.28°
   11   	1.100e+04	1.020e-04	8.894e-06	  176.57°	  176.20°
   12   	1.200e+04	9.784e-05	8.528e-06	 -179.91°	 -180.27°
   13   	1.300e+04	8.640e-05	7.531e-06	  176.22°	  175.86°
   14   	1.400e+04	8.217e-05	7.162e-06	 -179.98°	 -180.34°
   15   	1.500e+04	7.487e-05	6.526e-06	  176.31°	  175.95°
   16   	1.600e+04	7.087e-05	6.177e-06	 -179.99°	 -180.35°
   17   	1.700e+04	6.586e-05	5.740e-06	  177.01°	  176.64°
   18   	1.800e+04	6.209e-05	5.411e-06	  179.91°	  179.54°
   19   	1.900e+04	5.886e-05	5.130e-06	  177.55°	  177.19°
   20   	2.000e+04	5.552e-05	4.839e-06	  179.94°	  179.58°
   21   	2.100e+04	5.305e-05	4.624e-06	  178.36°	  178.00°
   22   	2.200e+04	5.013e-05	4.369e-06	  179.84°	  179.48°
   23   	2.300e+04	4.843e-05	4.221e-06	  178.80°	  178.44°
   24   	2.400e+04	4.593e-05	4.004e-06	  179.94°	  179.57°
   25   	2.500e+04	4.441e-05	3.870e-06	  179.38°	  179.01°
   26   	2.600e+04	4.233e-05	3.689e-06	  179.85°	  179.48°
   27   	2.700e+04	4.117e-05	3.588e-06	  179.60°	  179.24°
   28   	2.800e+04	3.939e-05	3.433e-06	  179.98°	  179.61°
   29   	2.900e+04	3.822e-05	3.332e-06	  179.90°	  179.54°
   30   	3.000e+04	3.678e-05	3.206e-06	  179.90°	  179.53°
Total Harmonic Distortion: 0.008090%(0.048782%)

.step vpin=0.5
N-Period=4
Fourier components of V(out)
DC component:-0.0770799

Harmonic	Frequency	 Fourier 	Normalized	 Phase  	Normalized
 Number 	  [Hz]   	Component	 Component	[degree]	Phase [deg]
    1   	1.000e+03	1.208e+01	1.000e+00	    0.36°	    0.00°
    2   	2.000e+03	6.507e-04	5.388e-05	  177.40°	  177.04°
    3   	3.000e+03	3.856e-04	3.193e-05	 -173.03°	 -173.40°
    4   	4.000e+03	3.239e-04	2.682e-05	 -179.96°	 -180.33°
    5   	5.000e+03	2.356e-04	1.951e-05	 -174.06°	 -174.42°
    6   	6.000e+03	2.130e-04	1.763e-05	  179.97°	  179.61°
    7   	7.000e+03	1.668e-04	1.381e-05	 -179.73°	 -180.09°
    8   	8.000e+03	1.623e-04	1.344e-05	 -179.84°	 -180.20°
    9   	9.000e+03	1.310e-04	1.085e-05	  179.89°	  179.53°
   10   	1.000e+04	1.246e-04	1.032e-05	  179.97°	  179.60°
   11   	1.100e+04	1.074e-04	8.893e-06	  175.54°	  175.18°
   12   	1.200e+04	1.047e-04	8.669e-06	 -179.79°	 -180.15°
   13   	1.300e+04	9.098e-05	7.533e-06	  177.20°	  176.84°
   14   	1.400e+04	8.651e-05	7.164e-06	  179.98°	  179.62°
   15   	1.500e+04	7.883e-05	6.527e-06	  175.71°	  175.34°
   16   	1.600e+04	7.500e-05	6.210e-06	  179.98°	  179.61°
   17   	1.700e+04	6.961e-05	5.764e-06	  176.66°	  176.29°
   18   	1.800e+04	6.604e-05	5.468e-06	 -179.92°	 -180.28°
   19   	1.900e+04	6.180e-05	5.117e-06	  177.70°	  177.34°
   20   	2.000e+04	5.815e-05	4.815e-06	  179.72°	  179.36°
   21   	2.100e+04	5.617e-05	4.651e-06	  177.33°	  176.97°
   22   	2.200e+04	5.331e-05	4.414e-06	 -179.95°	 -180.32°
   23   	2.300e+04	5.089e-05	4.214e-06	  179.16°	  178.80°
   24   	2.400e+04	4.811e-05	3.984e-06	  179.82°	  179.46°
   25   	2.500e+04	4.680e-05	3.875e-06	  178.63°	  178.26°
   26   	2.600e+04	4.465e-05	3.697e-06	  179.78°	  179.42°
   27   	2.700e+04	4.347e-05	3.599e-06	  179.64°	  179.27°
   28   	2.800e+04	4.145e-05	3.432e-06	 -179.85°	 -180.22°
   29   	2.900e+04	4.006e-05	3.317e-06	  179.73°	  179.36°
   30   	3.000e+04	3.860e-05	3.196e-06	  179.62°	  179.26°
Total Harmonic Distortion: 0.008084%(0.048781%)

.step vpin=0.525
N-Period=4
Fourier components of V(out)
DC component:-0.080914

Harmonic	Frequency	 Fourier 	Normalized	 Phase  	Normalized
 Number 	  [Hz]   	Component	 Component	[degree]	Phase [deg]
    1   	1.000e+03	1.268e+01	1.000e+00	    0.36°	    0.00°
    2   	2.000e+03	6.781e-04	5.347e-05	  177.31°	  176.95°
    3   	3.000e+03	3.963e-04	3.125e-05	 -174.44°	 -174.80°
    4   	4.000e+03	3.484e-04	2.747e-05	  179.99°	  179.62°
    5   	5.000e+03	2.546e-04	2.007e-05	 -170.58°	 -170.94°
    6   	6.000e+03	2.136e-04	1.684e-05	  179.94°	  179.58°
    7   	7.000e+03	1.722e-04	1.358e-05	  175.92°	  175.55°
    8   	8.000e+03	1.804e-04	1.422e-05	 -179.75°	 -180.12°
    9   	9.000e+03	1.401e-04	1.105e-05	 -174.37°	 -174.73°
   10   	1.000e+04	1.233e-04	9.723e-06	  179.83°	  179.47°
   11   	1.100e+04	1.128e-04	8.898e-06	  170.73°	  170.36°
   12   	1.200e+04	1.167e-04	9.204e-06	 -179.71°	 -180.07°
   13   	1.300e+04	9.613e-05	7.581e-06	 -178.19°	 -178.55°
   14   	1.400e+04	8.640e-05	6.813e-06	  179.92°	  179.56°
   15   	1.500e+04	8.318e-05	6.559e-06	  171.34°	  170.97°
   16   	1.600e+04	8.342e-05	6.579e-06	 -179.85°	 -180.22°
   17   	1.700e+04	7.317e-05	5.770e-06	 -179.08°	 -179.45°
   18   	1.800e+04	6.602e-05	5.206e-06	  179.73°	  179.37°
   19   	1.900e+04	6.556e-05	5.170e-06	  172.76°	  172.39°
   20   	2.000e+04	6.403e-05	5.049e-06	 -179.78°	 -180.14°
   21   	2.100e+04	5.880e-05	4.637e-06	 -178.85°	 -179.22°
   22   	2.200e+04	5.487e-05	4.327e-06	  179.66°	  179.29°
   23   	2.300e+04	5.358e-05	4.225e-06	  176.36°	  175.99°
   24   	2.400e+04	5.000e-05	3.943e-06	  179.73°	  179.37°
   25   	2.500e+04	4.967e-05	3.917e-06	  178.22°	  177.86°
   26   	2.600e+04	4.917e-05	3.878e-06	 -179.50°	 -179.86°
   27   	2.700e+04	4.477e-05	3.530e-06	 -177.60°	 -177.97°
   28   	2.800e+04	4.020e-05	3.170e-06	  178.70°	  178.33°
   29   	2.900e+04	4.343e-05	3.425e-06	  174.67°	  174.30°
   30   	3.000e+04	4.397e-05	3.467e-06	 -179.03°	 -179.40°
Total Harmonic Distortion: 0.008061%(0.048776%)

.step vpin=0.55
N-Period=4
Fourier components of V(out)
DC component:-0.0847508

Harmonic	Frequency	 Fourier 	Normalized	 Phase  	Normalized
 Number 	  [Hz]   	Component	 Component	[degree]	Phase [deg]
    1   	1.000e+03	1.328e+01	1.000e+00	    0.36°	    0.00°
    2   	2.000e+03	7.056e-04	5.311e-05	  176.86°	  176.49°
    3   	3.000e+03	4.004e-04	3.014e-05	 -176.34°	 -176.70°
    4   	4.000e+03	3.701e-04	2.786e-05	 -179.45°	 -179.82°
    5   	5.000e+03	2.768e-04	2.084e-05	 -167.99°	 -168.36°
    6   	6.000e+03	2.239e-04	1.685e-05	  179.25°	  178.88°
    7   	7.000e+03	1.772e-04	1.334e-05	  176.20°	  175.83°
    8   	8.000e+03	1.801e-04	1.356e-05	 -179.41°	 -179.77°
    9   	9.000e+03	1.461e-04	1.100e-05	 -179.83°	 -180.20°
   10   	1.000e+04	1.469e-04	1.106e-05	 -179.81°	 -180.17°
   11   	1.100e+04	1.180e-04	8.879e-06	 -175.43°	 -175.80°
   12   	1.200e+04	1.020e-04	7.682e-06	  179.09°	  178.73°
   13   	1.300e+04	1.038e-04	7.814e-06	  163.91°	  163.55°
   14   	1.400e+04	1.093e-04	8.225e-06	 -178.74°	 -179.10°
   15   	1.500e+04	8.833e-05	6.649e-06	 -170.43°	 -170.80°
   16   	1.600e+04	7.666e-05	5.771e-06	  178.94°	  178.57°
   17   	1.700e+04	7.730e-05	5.819e-06	  167.59°	  167.23°
   18   	1.800e+04	7.214e-05	5.430e-06	 -180.00°	 -180.36°
   19   	1.900e+04	7.001e-05	5.270e-06	  177.15°	  176.79°
   20   	2.000e+04	7.222e-05	5.437e-06	 -179.01°	 -179.38°
   21   	2.100e+04	5.985e-05	4.505e-06	 -174.21°	 -174.58°
   22   	2.200e+04	4.815e-05	3.625e-06	  177.45°	  177.08°
   23   	2.300e+04	6.058e-05	4.560e-06	  164.54°	  164.18°
   24   	2.400e+04	6.322e-05	4.759e-06	 -178.30°	 -178.67°
   25   	2.500e+04	5.149e-05	3.876e-06	 -165.40°	 -165.76°
   26   	2.600e+04	4.320e-05	3.252e-06	  178.11°	  177.75°
   27   	2.700e+04	4.983e-05	3.751e-06	  167.40°	  167.03°
   28   	2.800e+04	4.547e-05	3.423e-06	  179.97°	  179.61°
   29   	2.900e+04	4.479e-05	3.372e-06	 -177.40°	 -177.77°
   30   	3.000e+04	4.860e-05	3.658e-06	 -178.46°	 -178.83°
Total Harmonic Distortion: 0.008029%(0.048772%)

.step vpin=0.575
N-Period=4
Fourier components of V(out)
DC component:-0.0885868

Harmonic	Frequency	 Fourier 	Normalized	 Phase  	Normalized
 Number 	  [Hz]   	Component	 Component	[degree]	Phase [deg]
    1   	1.000e+03	1.389e+01	1.000e+00	    0.36°	    0.00°
    2   	2.000e+03	7.357e-04	5.297e-05	  176.60°	  176.24°
    3   	3.000e+03	4.141e-04	2.982e-05	 -176.77°	 -177.13°
    4   	4.000e+03	3.857e-04	2.777e-05	 -179.37°	 -179.74°
    5   	5.000e+03	2.862e-04	2.060e-05	 -169.14°	 -169.51°
    6   	6.000e+03	2.418e-04	1.741e-05	  179.55°	  179.19°
    7   	7.000e+03	1.902e-04	1.370e-05	 -176.69°	 -177.05°
    8   	8.000e+03	1.765e-04	1.271e-05	  179.78°	  179.41°
    9   	9.000e+03	1.496e-04	1.077e-05	  170.84°	  170.47°
   10   	1.000e+04	1.617e-04	1.164e-05	 -178.95°	 -179.31°
   11   	1.100e+04	1.282e-04	9.232e-06	 -169.72°	 -170.09°
   12   	1.200e+04	1.116e-04	8.034e-06	  179.00°	  178.63°
   13   	1.300e+04	1.038e-04	7.472e-06	  170.18°	  169.81°
   14   	1.400e+04	9.831e-05	7.078e-06	  179.92°	  179.55°
   15   	1.500e+04	9.423e-05	6.785e-06	  169.68°	  169.32°
   16   	1.600e+04	1.000e-04	7.200e-06	 -178.48°	 -178.85°
   17   	1.700e+04	8.014e-05	5.770e-06	 -167.25°	 -167.62°
   18   	1.800e+04	6.540e-05	4.709e-06	  177.67°	  177.30°
   19   	1.900e+04	7.551e-05	5.437e-06	  162.38°	  162.02°
   20   	2.000e+04	7.053e-05	5.078e-06	 -179.61°	 -179.98°
   21   	2.100e+04	6.625e-05	4.770e-06	  179.27°	  178.91°
   22   	2.200e+04	6.904e-05	4.971e-06	 -178.42°	 -178.78°
   23   	2.300e+04	5.652e-05	4.070e-06	 -169.23°	 -169.60°
   24   	2.400e+04	4.449e-05	3.203e-06	  175.98°	  175.61°
   25   	2.500e+04	6.050e-05	4.356e-06	  160.52°	  160.16°
   26   	2.600e+04	5.887e-05	4.239e-06	 -178.41°	 -178.77°
   27   	2.700e+04	5.021e-05	3.615e-06	 -167.61°	 -167.97°
   28   	2.800e+04	4.895e-05	3.525e-06	 -179.35°	 -179.71°
   29   	2.900e+04	4.455e-05	3.207e-06	 -179.18°	 -179.55°
   30   	3.000e+04	3.558e-05	2.562e-06	  175.50°	  175.13°
Total Harmonic Distortion: 0.008008%(0.048770%)

.step vpin=0.6
N-Period=4
Fourier components of V(out)
DC component:-0.0924227

Harmonic	Frequency	 Fourier 	Normalized	 Phase  	Normalized
 Number 	  [Hz]   	Component	 Component	[degree]	Phase [deg]
    1   	1.000e+03	1.449e+01	1.000e+00	    0.36°	    0.00°
    2   	2.000e+03	7.665e-04	5.289e-05	  176.40°	  176.03°
    3   	3.000e+03	4.305e-04	2.971e-05	 -176.79°	 -177.15°
    4   	4.000e+03	3.998e-04	2.759e-05	 -179.40°	 -179.77°
    5   	5.000e+03	2.931e-04	2.023e-05	 -170.83°	 -171.19°
    6   	6.000e+03	2.596e-04	1.791e-05	  179.91°	  179.55°
    7   	7.000e+03	2.050e-04	1.414e-05	 -171.66°	 -172.02°
    8   	8.000e+03	1.787e-04	1.233e-05	  179.25°	  178.88°
    9   	9.000e+03	1.544e-04	1.065e-05	  169.08°	  168.72°
   10   	1.000e+04	1.647e-04	1.137e-05	 -179.03°	 -179.39°
   11   	1.100e+04	1.319e-04	9.103e-06	 -176.38°	 -176.75°
   12   	1.200e+04	1.302e-04	8.984e-06	 -179.72°	 -180.09°
   13   	1.300e+04	1.082e-04	7.464e-06	 -174.42°	 -174.79°
   14   	1.400e+04	9.255e-05	6.386e-06	  178.25°	  177.88°
   15   	1.500e+04	1.007e-04	6.948e-06	  160.63°	  160.27°
   16   	1.600e+04	1.010e-04	6.970e-06	 -178.66°	 -179.02°
   17   	1.700e+04	8.500e-05	5.865e-06	 -176.56°	 -176.93°
   18   	1.800e+04	8.542e-05	5.894e-06	 -179.20°	 -179.57°
   19   	1.900e+04	7.206e-05	4.973e-06	 -172.55°	 -172.91°
   20   	2.000e+04	5.850e-05	4.037e-06	  176.57°	  176.21°
   21   	2.100e+04	7.537e-05	5.201e-06	  158.88°	  158.51°
   22   	2.200e+04	7.204e-05	4.971e-06	 -178.50°	 -178.87°
   23   	2.300e+04	6.228e-05	4.297e-06	 -173.30°	 -173.66°
   24   	2.400e+04	6.338e-05	4.373e-06	 -178.58°	 -178.95°
   25   	2.500e+04	5.331e-05	3.678e-06	 -170.43°	 -170.79°
   26   	2.600e+04	4.197e-05	2.896e-06	  174.83°	  174.46°
   27   	2.700e+04	6.016e-05	4.151e-06	  159.16°	  158.80°
   28   	2.800e+04	5.695e-05	3.930e-06	 -178.29°	 -178.65°
   29   	2.900e+04	4.887e-05	3.372e-06	 -168.98°	 -169.34°
   30   	3.000e+04	5.044e-05	3.480e-06	 -178.07°	 -178.44°
Total Harmonic Distortion: 0.008000%(0.048768%)

.step vpin=0.625
N-Period=4
Fourier components of V(out)
DC component:-0.0962587

Harmonic	Frequency	 Fourier 	Normalized	 Phase  	Normalized
 Number 	  [Hz]   	Component	 Component	[degree]	Phase [deg]
    1   	1.000e+03	1.510e+01	1.000e+00	    0.36°	    0.00°
    2   	2.000e+03	7.979e-04	5.285e-05	  176.22°	  175.86°
    3   	3.000e+03	4.481e-04	2.968e-05	 -176.65°	 -177.02°
    4   	4.000e+03	4.132e-04	2.737e-05	 -179.47°	 -179.84°
    5   	5.000e+03	2.999e-04	1.987e-05	 -172.45°	 -172.82°
    6   	6.000e+03	2.760e-04	1.828e-05	 -179.81°	 -180.17°
    7   	7.000e+03	2.184e-04	1.447e-05	 -168.98°	 -169.34°
    8   	8.000e+03	1.859e-04	1.231e-05	  179.10°	  178.74°
    9   	9.000e+03	1.591e-04	1.054e-05	  172.16°	  171.79°
   10   	1.000e+04	1.632e-04	1.081e-05	 -179.56°	 -179.92°
   11   	1.100e+04	1.360e-04	9.009e-06	  174.97°	  174.60°
   12   	1.200e+04	1.449e-04	9.601e-06	 -178.88°	 -179.25°
   13   	1.300e+04	1.164e-04	7.711e-06	 -168.40°	 -168.76°
   14   	1.400e+04	1.001e-04	6.629e-06	  178.55°	  178.19°
   15   	1.500e+04	9.881e-05	6.546e-06	  168.60°	  168.24°
   16   	1.600e+04	9.153e-05	6.063e-06	  179.45°	  179.09°
   17   	1.700e+04	9.301e-05	6.161e-06	  165.37°	  165.01°
   18   	1.800e+04	9.840e-05	6.518e-06	 -177.85°	 -178.22°
   19   	1.900e+04	7.849e-05	5.199e-06	 -165.38°	 -165.74°
   20   	2.000e+04	6.945e-05	4.600e-06	  178.84°	  178.47°
   21   	2.100e+04	6.862e-05	4.546e-06	  174.45°	  174.09°
   22   	2.200e+04	5.777e-05	3.827e-06	  176.99°	  176.62°
   23   	2.300e+04	7.291e-05	4.830e-06	  160.54°	  160.17°
   24   	2.400e+04	7.310e-05	4.843e-06	 -177.34°	 -177.70°
   25   	2.500e+04	5.896e-05	3.906e-06	 -164.69°	 -165.06°
   26   	2.600e+04	5.648e-05	3.741e-06	 -179.55°	 -179.91°
   27   	2.700e+04	5.100e-05	3.378e-06	 -175.88°	 -176.25°
   28   	2.800e+04	4.054e-05	2.685e-06	  174.02°	  173.66°
   29   	2.900e+04	5.993e-05	3.970e-06	  158.72°	  158.35°
   30   	3.000e+04	5.663e-05	3.752e-06	 -177.73°	 -178.09°
Total Harmonic Distortion: 0.007992%(0.048767%)

.step vpin=0.65
N-Period=4
Fourier components of V(out)
DC component:-0.100095

Harmonic	Frequency	 Fourier 	Normalized	 Phase  	Normalized
 Number 	  [Hz]   	Component	 Component	[degree]	Phase [deg]
    1   	1.000e+03	1.570e+01	1.000e+00	    0.36°	    0.00°
    2   	2.000e+03	8.296e-04	5.284e-05	  176.06°	  175.69°
    3   	3.000e+03	4.664e-04	2.971e-05	 -176.46°	 -176.82°
    4   	4.000e+03	4.264e-04	2.716e-05	 -179.55°	 -179.91°
    5   	5.000e+03	3.072e-04	1.957e-05	 -173.82°	 -174.18°
    6   	6.000e+03	2.908e-04	1.852e-05	 -179.62°	 -179.98°
    7   	7.000e+03	2.297e-04	1.463e-05	 -167.95°	 -168.32°
    8   	8.000e+03	1.962e-04	1.250e-05	  179.22°	  178.86°
    9   	9.000e+03	1.653e-04	1.053e-05	  177.13°	  176.76°
   10   	1.000e+04	1.617e-04	1.030e-05	  179.83°	  179.46°
   11   	1.100e+04	1.414e-04	9.004e-06	  169.22°	  168.86°
   12   	1.200e+04	1.529e-04	9.736e-06	 -178.67°	 -179.03°
   13   	1.300e+04	1.215e-04	7.739e-06	 -171.07°	 -171.44°
   14   	1.400e+04	1.144e-04	7.288e-06	  179.80°	  179.44°
   15   	1.500e+04	1.000e-04	6.372e-06	 -177.97°	 -178.34°
   16   	1.600e+04	8.680e-05	5.528e-06	  177.88°	  177.52°
   17   	1.700e+04	9.852e-05	6.275e-06	  159.64°	  159.27°
   18   	1.800e+04	9.648e-05	6.145e-06	 -178.64°	 -179.01°
   19   	1.900e+04	8.281e-05	5.275e-06	 -179.89°	 -180.26°
   20   	2.000e+04	8.722e-05	5.556e-06	 -178.25°	 -178.62°
   21   	2.100e+04	7.121e-05	4.536e-06	 -164.98°	 -165.34°
   22   	2.200e+04	5.783e-05	3.683e-06	  176.29°	  175.93°
   23   	2.300e+04	7.130e-05	4.541e-06	  162.53°	  162.16°
   24   	2.400e+04	6.146e-05	3.915e-06	  178.86°	  178.50°
   25   	2.500e+04	6.743e-05	4.295e-06	  167.63°	  167.27°
   26   	2.600e+04	7.171e-05	4.568e-06	 -176.56°	 -176.93°
   27   	2.700e+04	5.596e-05	3.564e-06	 -158.37°	 -158.74°
   28   	2.800e+04	4.942e-05	3.148e-06	  178.57°	  178.21°
   29   	2.900e+04	5.066e-05	3.227e-06	  176.03°	  175.66°
   30   	3.000e+04	4.046e-05	2.577e-06	  173.97°	  173.61°
Total Harmonic Distortion: 0.007981%(0.048767%)

.step vpin=0.675
N-Period=4
Fourier components of V(out)
DC component:-0.103931

Harmonic	Frequency	 Fourier 	Normalized	 Phase  	Normalized
 Number 	  [Hz]   	Component	 Component	[degree]	Phase [deg]
    1   	1.000e+03	1.630e+01	1.000e+00	    0.36°	    0.00°
    2   	2.000e+03	8.616e-04	5.285e-05	  175.90°	  175.54°
    3   	3.000e+03	4.850e-04	2.975e-05	 -176.25°	 -176.62°
    4   	4.000e+03	4.395e-04	2.696e-05	 -179.62°	 -179.98°
    5   	5.000e+03	3.151e-04	1.933e-05	 -174.88°	 -175.25°
    6   	6.000e+03	3.042e-04	1.866e-05	 -179.50°	 -179.87°
    7   	7.000e+03	2.390e-04	1.466e-05	 -167.98°	 -168.34°
    8   	8.000e+03	2.082e-04	1.277e-05	  179.46°	  179.09°
    9   	9.000e+03	1.732e-04	1.062e-05	 -177.91°	 -178.27°
   10   	1.000e+04	1.623e-04	9.955e-06	  179.34°	  178.97°
   11   	1.100e+04	1.461e-04	8.962e-06	  167.26°	  166.89°
   12   	1.200e+04	1.555e-04	9.535e-06	 -178.88°	 -179.25°
   13   	1.300e+04	1.253e-04	7.687e-06	 -177.83°	 -178.19°
   14   	1.400e+04	1.289e-04	7.904e-06	 -179.15°	 -179.51°
   15   	1.500e+04	1.063e-04	6.520e-06	 -169.38°	 -169.75°
   16   	1.600e+04	9.087e-05	5.573e-06	  177.91°	  177.54°
   17   	1.700e+04	9.663e-05	5.927e-06	  165.25°	  164.88°
   18   	1.800e+04	8.856e-05	5.432e-06	  179.45°	  179.09°
   19   	1.900e+04	9.131e-05	5.601e-06	  164.86°	  164.49°
   20   	2.000e+04	9.599e-05	5.888e-06	 -177.52°	 -177.89°
   21   	2.100e+04	7.626e-05	4.678e-06	 -165.95°	 -166.31°
   22   	2.200e+04	7.194e-05	4.413e-06	  179.85°	  179.49°
   23   	2.300e+04	6.555e-05	4.021e-06	 -176.16°	 -176.53°
   24   	2.400e+04	5.324e-05	3.266e-06	  175.06°	  174.70°
   25   	2.500e+04	7.408e-05	4.544e-06	  157.63°	  157.27°
   26   	2.600e+04	6.645e-05	4.076e-06	 -178.86°	 -179.22°
   27   	2.700e+04	6.130e-05	3.760e-06	  178.92°	  178.56°
   28   	2.800e+04	6.737e-05	4.132e-06	 -176.46°	 -176.83°
   29   	2.900e+04	5.250e-05	3.220e-06	 -156.56°	 -156.93°
   30   	3.000e+04	4.331e-05	2.656e-06	  175.91°	  175.54°
Total Harmonic Distortion: 0.007979%(0.048766%)

.step vpin=0.7
N-Period=4
Fourier components of V(out)
DC component:-0.107767

Harmonic	Frequency	 Fourier 	Normalized	 Phase  	Normalized
 Number 	  [Hz]   	Component	 Component	[degree]	Phase [deg]
    1   	1.000e+03	1.691e+01	1.000e+00	    0.36°	    0.00°
    2   	2.000e+03	8.938e-04	5.286e-05	  175.75°	  175.38°
    3   	3.000e+03	5.037e-04	2.979e-05	 -176.07°	 -176.44°
    4   	4.000e+03	4.528e-04	2.678e-05	 -179.68°	 -180.05°
    5   	5.000e+03	3.237e-04	1.915e-05	 -175.66°	 -176.03°
    6   	6.000e+03	3.165e-04	1.872e-05	 -179.45°	 -179.81°
    7   	7.000e+03	2.470e-04	1.461e-05	 -168.62°	 -168.99°
    8   	8.000e+03	2.208e-04	1.306e-05	  179.72°	  179.36°
    9   	9.000e+03	1.824e-04	1.079e-05	 -173.86°	 -174.22°
   10   	1.000e+04	1.655e-04	9.787e-06	  179.05°	  178.69°
   11   	1.100e+04	1.498e-04	8.859e-06	  168.31°	  167.94°
   12   	1.200e+04	1.552e-04	9.179e-06	 -179.35°	 -179.71°
   13   	1.300e+04	1.301e-04	7.695e-06	  175.10°	  174.73°
   14   	1.400e+04	1.398e-04	8.270e-06	 -178.59°	 -178.95°
   15   	1.500e+04	1.123e-04	6.643e-06	 -167.86°	 -168.22°
   16   	1.600e+04	1.013e-04	5.991e-06	  179.02°	  178.66°
   17   	1.700e+04	9.506e-05	5.622e-06	  176.61°	  176.25°
   18   	1.800e+04	8.340e-05	4.933e-06	  177.75°	  177.38°
   19   	1.900e+04	9.710e-05	5.743e-06	  159.18°	  158.82°
   20   	2.000e+04	9.405e-05	5.563e-06	 -178.45°	 -178.81°
   21   	2.100e+04	8.097e-05	4.789e-06	  179.48°	  179.12°
   22   	2.200e+04	8.691e-05	5.140e-06	 -177.72°	 -178.08°
   23   	2.300e+04	7.001e-05	4.141e-06	 -162.15°	 -162.52°
   24   	2.400e+04	5.890e-05	3.484e-06	  176.82°	  176.45°
   25   	2.500e+04	6.685e-05	3.954e-06	  168.77°	  168.40°
   26   	2.600e+04	5.481e-05	3.242e-06	  176.29°	  175.92°
   27   	2.700e+04	7.230e-05	4.276e-06	  159.62°	  159.26°
   28   	2.800e+04	6.991e-05	4.135e-06	 -176.96°	 -177.33°
   29   	2.900e+04	5.677e-05	3.358e-06	 -168.52°	 -168.89°
   30   	3.000e+04	6.075e-05	3.593e-06	 -177.25°	 -177.61°
Total Harmonic Distortion: 0.007979%(0.048766%)

.step vpin=0.725
N-Period=4
Fourier components of V(out)
DC component:-0.111604

Harmonic	Frequency	 Fourier 	Normalized	 Phase  	Normalized
 Number 	  [Hz]   	Component	 Component	[degree]	Phase [deg]
    1   	1.000e+03	1.751e+01	1.000e+00	    0.36°	    0.00°
    2   	2.000e+03	9.261e-04	5.289e-05	  175.59°	  175.23°
    3   	3.000e+03	5.224e-04	2.983e-05	 -175.92°	 -176.28°
    4   	4.000e+03	4.661e-04	2.662e-05	 -179.73°	 -180.10°
    5   	5.000e+03	3.328e-04	1.901e-05	 -176.19°	 -176.55°
    6   	6.000e+03	3.278e-04	1.872e-05	 -179.43°	 -179.80°
    7   	7.000e+03	2.542e-04	1.451e-05	 -169.60°	 -169.96°
    8   	8.000e+03	2.334e-04	1.333e-05	  179.97°	  179.60°
    9   	9.000e+03	1.919e-04	1.096e-05	 -170.96°	 -171.33°
   10   	1.000e+04	1.710e-04	9.764e-06	  178.98°	  178.61°
   11   	1.100e+04	1.532e-04	8.746e-06	  171.29°	  170.93°
   12   	1.200e+04	1.542e-04	8.806e-06	 -179.90°	 -180.26°
   13   	1.300e+04	1.356e-04	7.743e-06	  169.84°	  169.48°
   14   	1.400e+04	1.465e-04	8.366e-06	 -178.46°	 -178.83°
   15   	1.500e+04	1.166e-04	6.660e-06	 -171.34°	 -171.70°
   16   	1.600e+04	1.141e-04	6.513e-06	 -179.75°	 -180.12°
   17   	1.700e+04	9.825e-05	5.611e-06	 -173.09°	 -173.46°
   18   	1.800e+04	8.449e-05	4.825e-06	  177.31°	  176.94°
   19   	1.900e+04	9.616e-05	5.491e-06	  162.18°	  161.82°
   20   	2.000e+04	8.729e-05	4.985e-06	  179.70°	  179.33°
   21   	2.100e+04	8.939e-05	5.104e-06	  165.70°	  165.33°
   22   	2.200e+04	9.398e-05	5.367e-06	 -177.22°	 -177.59°
   23   	2.300e+04	7.429e-05	4.242e-06	 -166.07°	 -166.44°
   24   	2.400e+04	7.294e-05	4.165e-06	 -179.48°	 -179.85°
   25   	2.500e+04	6.398e-05	3.653e-06	 -170.58°	 -170.95°
   26   	2.600e+04	5.190e-05	2.964e-06	  174.34°	  173.97°
   27   	2.700e+04	7.189e-05	4.105e-06	  159.38°	  159.02°
   28   	2.800e+04	5.982e-05	3.416e-06	  178.96°	  178.59°
   29   	2.900e+04	6.647e-05	3.796e-06	  167.16°	  166.80°
   30   	3.000e+04	7.022e-05	4.010e-06	 -175.78°	 -176.14°
Total Harmonic Distortion: 0.007977%(0.048766%)

.step vpin=0.75
N-Period=4
Fourier components of V(out)
DC component:-0.115441

Harmonic	Frequency	 Fourier 	Normalized	 Phase  	Normalized
 Number 	  [Hz]   	Component	 Component	[degree]	Phase [deg]
    1   	1.000e+03	1.812e+01	1.000e+00	    0.36°	    0.00°
    2   	2.000e+03	9.586e-04	5.292e-05	  175.44°	  175.07°
    3   	3.000e+03	5.411e-04	2.987e-05	 -175.81°	 -176.17°
    4   	4.000e+03	4.796e-04	2.648e-05	 -179.77°	 -180.14°
    5   	5.000e+03	3.424e-04	1.890e-05	 -176.51°	 -176.87°
    6   	6.000e+03	3.384e-04	1.868e-05	 -179.45°	 -179.81°
    7   	7.000e+03	2.608e-04	1.440e-05	 -170.71°	 -171.08°
    8   	8.000e+03	2.456e-04	1.356e-05	 -179.82°	 -180.19°
    9   	9.000e+03	2.010e-04	1.109e-05	 -169.13°	 -169.50°
   10   	1.000e+04	1.784e-04	9.845e-06	  179.06°	  178.69°
   11   	1.100e+04	1.571e-04	8.673e-06	  175.23°	  174.87°
   12   	1.200e+04	1.538e-04	8.491e-06	  179.59°	  179.22°
   13   	1.300e+04	1.406e-04	7.759e-06	  167.03°	  166.66°
   14   	1.400e+04	1.495e-04	8.255e-06	 -178.65°	 -179.02°
   15   	1.500e+04	1.207e-04	6.661e-06	 -177.27°	 -177.63°
   16   	1.600e+04	1.260e-04	6.955e-06	 -178.86°	 -179.23°
   17   	1.700e+04	1.038e-04	5.728e-06	 -167.84°	 -168.20°
   18   	1.800e+04	9.128e-05	5.039e-06	  178.09°	  177.73°
   19   	1.900e+04	9.310e-05	5.139e-06	  170.92°	  170.55°
   20   	2.000e+04	8.174e-05	4.512e-06	  177.84°	  177.48°
   21   	2.100e+04	9.583e-05	5.290e-06	  159.39°	  159.02°
   22   	2.200e+04	9.264e-05	5.114e-06	 -178.13°	 -178.50°
   23   	2.300e+04	7.917e-05	4.370e-06	 -179.80°	 -180.17°
   24   	2.400e+04	8.596e-05	4.745e-06	 -177.35°	 -177.71°
   25   	2.500e+04	6.859e-05	3.786e-06	 -160.78°	 -161.15°
   26   	2.600e+04	5.986e-05	3.305e-06	  177.36°	  176.99°
   27   	2.700e+04	6.376e-05	3.519e-06	  174.19°	  173.83°
   28   	2.800e+04	5.121e-05	2.827e-06	  174.38°	  174.01°
   29   	2.900e+04	7.395e-05	4.082e-06	  157.39°	  157.03°
   30   	3.000e+04	6.522e-05	3.600e-06	 -178.32°	 -178.69°
Total Harmonic Distortion: 0.007972%(0.048766%)

.step vpin=0.775
N-Period=4
Fourier components of V(out)
DC component:-0.119278

Harmonic	Frequency	 Fourier 	Normalized	 Phase  	Normalized
 Number 	  [Hz]   	Component	 Component	[degree]	Phase [deg]
    1   	1.000e+03	1.872e+01	1.000e+00	    0.37°	    0.00°
    2   	2.000e+03	9.913e-04	5.296e-05	  175.28°	  174.92°
    3   	3.000e+03	5.596e-04	2.989e-05	 -175.73°	 -176.10°
    4   	4.000e+03	4.932e-04	2.635e-05	 -179.80°	 -180.17°
    5   	5.000e+03	3.525e-04	1.883e-05	 -176.66°	 -177.02°
    6   	6.000e+03	3.486e-04	1.862e-05	 -179.48°	 -179.84°
    7   	7.000e+03	2.674e-04	1.428e-05	 -171.85°	 -172.22°
    8   	8.000e+03	2.572e-04	1.374e-05	 -179.66°	 -180.02°
    9   	9.000e+03	2.094e-04	1.119e-05	 -168.17°	 -168.53°
   10   	1.000e+04	1.870e-04	9.990e-06	  179.24°	  178.87°
   11   	1.100e+04	1.621e-04	8.661e-06	  179.34°	  178.97°
   12   	1.200e+04	1.548e-04	8.268e-06	  179.19°	  178.82°
   13   	1.300e+04	1.444e-04	7.713e-06	  166.45°	  166.09°
   14   	1.400e+04	1.502e-04	8.024e-06	 -179.05°	 -179.41°
   15   	1.500e+04	1.255e-04	6.703e-06	  176.52°	  176.16°
   16   	1.600e+04	1.353e-04	7.229e-06	 -178.38°	 -178.75°
   17   	1.700e+04	1.088e-04	5.810e-06	 -167.62°	 -167.98°
   18   	1.800e+04	1.015e-04	5.423e-06	  179.36°	  178.99°
   19   	1.900e+04	9.303e-05	4.970e-06	 -178.71°	 -179.08°
   20   	2.000e+04	8.056e-05	4.304e-06	  176.91°	  176.55°
   21   	2.100e+04	9.638e-05	5.148e-06	  160.09°	  159.73°
   22   	2.200e+04	8.690e-05	4.642e-06	 -179.91°	 -180.27°
   23   	2.300e+04	8.734e-05	4.666e-06	  167.25°	  166.88°
   24   	2.400e+04	9.232e-05	4.932e-06	 -176.92°	 -177.29°
   25   	2.500e+04	7.253e-05	3.875e-06	 -165.68°	 -166.05°
   26   	2.600e+04	7.314e-05	3.907e-06	 -179.03°	 -179.40°
   27   	2.700e+04	6.277e-05	3.353e-06	 -167.22°	 -167.59°
   28   	2.800e+04	5.167e-05	2.760e-06	  174.15°	  173.79°
   29   	2.900e+04	6.909e-05	3.691e-06	  162.30°	  161.94°
   30   	3.000e+04	5.492e-05	2.934e-06	  176.76°	  176.40°
Total Harmonic Distortion: 0.007967%(0.048765%)

.step vpin=0.8
N-Period=4
Fourier components of V(out)
DC component:-0.123115

Harmonic	Frequency	 Fourier 	Normalized	 Phase  	Normalized
 Number 	  [Hz]   	Component	 Component	[degree]	Phase [deg]
    1   	1.000e+03	1.932e+01	1.000e+00	    0.37°	    0.00°
    2   	2.000e+03	1.024e-03	5.300e-05	  175.12°	  174.76°
    3   	3.000e+03	5.780e-04	2.991e-05	 -175.70°	 -176.06°
    4   	4.000e+03	5.070e-04	2.624e-05	 -179.82°	 -180.18°
    5   	5.000e+03	3.628e-04	1.878e-05	 -176.68°	 -177.04°
    6   	6.000e+03	3.584e-04	1.855e-05	 -179.53°	 -179.89°
    7   	7.000e+03	2.738e-04	1.417e-05	 -172.93°	 -173.30°
    8   	8.000e+03	2.681e-04	1.387e-05	 -179.53°	 -179.90°
    9   	9.000e+03	2.172e-04	1.124e-05	 -167.86°	 -168.22°
   10   	1.000e+04	1.965e-04	1.017e-05	  179.46°	  179.10°
   11   	1.100e+04	1.682e-04	8.702e-06	 -176.93°	 -177.29°
   12   	1.200e+04	1.573e-04	8.140e-06	  178.94°	  178.58°
   13   	1.300e+04	1.472e-04	7.619e-06	  167.63°	  167.27°
   14   	1.400e+04	1.498e-04	7.750e-06	 -179.55°	 -179.92°
   15   	1.500e+04	1.309e-04	6.772e-06	  171.41°	  171.05°
   16   	1.600e+04	1.416e-04	7.327e-06	 -178.26°	 -178.62°
   17   	1.700e+04	1.128e-04	5.840e-06	 -170.92°	 -171.29°
   18   	1.800e+04	1.127e-04	5.835e-06	 -179.49°	 -179.85°
   19   	1.900e+04	9.651e-05	4.994e-06	 -170.84°	 -171.20°
   20   	2.000e+04	8.423e-05	4.359e-06	  177.21°	  176.85°
   21   	2.100e+04	9.323e-05	4.825e-06	  166.09°	  165.72°
   22   	2.200e+04	8.123e-05	4.204e-06	  178.14°	  177.77°
   23   	2.300e+04	9.442e-05	4.886e-06	  160.23°	  159.86°
   24   	2.400e+04	9.172e-05	4.746e-06	 -177.76°	 -178.12°
   25   	2.500e+04	7.740e-05	4.005e-06	 -178.43°	 -178.80°
   26   	2.600e+04	8.482e-05	4.389e-06	 -177.05°	 -177.41°
   27   	2.700e+04	6.714e-05	3.474e-06	 -159.92°	 -160.28°
   28   	2.800e+04	6.051e-05	3.131e-06	  177.79°	  177.43°
   29   	2.900e+04	6.161e-05	3.189e-06	  178.38°	  178.02°
   30   	3.000e+04	4.930e-05	2.551e-06	  173.08°	  172.71°
Total Harmonic Distortion: 0.007965%(0.048765%)

.step vpin=0.825
N-Period=4
Fourier components of V(out)
DC component:-0.126953

Harmonic	Frequency	 Fourier 	Normalized	 Phase  	Normalized
 Number 	  [Hz]   	Component	 Component	[degree]	Phase [deg]
    1   	1.000e+03	1.993e+01	1.000e+00	    0.37°	    0.00°
    2   	2.000e+03	1.057e-03	5.305e-05	  174.96°	  174.60°
    3   	3.000e+03	5.961e-04	2.991e-05	 -175.70°	 -176.06°
    4   	4.000e+03	5.208e-04	2.613e-05	 -179.82°	 -180.19°
    5   	5.000e+03	3.735e-04	1.874e-05	 -176.60°	 -176.96°
    6   	6.000e+03	3.679e-04	1.846e-05	 -179.58°	 -179.95°
    7   	7.000e+03	2.804e-04	1.407e-05	 -173.91°	 -174.28°
    8   	8.000e+03	2.784e-04	1.397e-05	 -179.45°	 -179.81°
    9   	9.000e+03	2.242e-04	1.125e-05	 -168.02°	 -168.38°
   10   	1.000e+04	2.063e-04	1.035e-05	  179.69°	  179.33°
   11   	1.100e+04	1.749e-04	8.776e-06	 -173.83°	 -174.19°
   12   	1.200e+04	1.613e-04	8.096e-06	  178.85°	  178.48°
   13   	1.300e+04	1.496e-04	7.510e-06	  170.04°	  169.68°
   14   	1.400e+04	1.491e-04	7.485e-06	  179.93°	  179.56°
   15   	1.500e+04	1.360e-04	6.825e-06	  167.99°	  167.62°
   16   	1.600e+04	1.451e-04	7.279e-06	 -178.40°	 -178.77°
   17   	1.700e+04	1.169e-04	5.866e-06	 -176.08°	 -176.45°
   18   	1.800e+04	1.231e-04	6.177e-06	 -178.67°	 -179.04°
   19   	1.900e+04	1.013e-04	5.083e-06	 -167.16°	 -167.53°
   20   	2.000e+04	9.167e-05	4.600e-06	  178.31°	  177.94°
   21   	2.100e+04	9.080e-05	4.556e-06	  175.11°	  174.74°
   22   	2.200e+04	7.848e-05	3.938e-06	  176.78°	  176.42°
   23   	2.300e+04	9.658e-05	4.847e-06	  159.06°	  158.69°
   24   	2.400e+04	8.694e-05	4.363e-06	 -179.42°	 -179.79°
   25   	2.500e+04	8.523e-05	4.277e-06	  169.20°	  168.84°
   26   	2.600e+04	9.089e-05	4.561e-06	 -176.62°	 -176.99°
   27   	2.700e+04	7.091e-05	3.558e-06	 -164.97°	 -165.34°
   28   	2.800e+04	7.292e-05	3.659e-06	 -178.71°	 -179.07°
   29   	2.900e+04	6.164e-05	3.094e-06	 -165.08°	 -165.45°
   30   	3.000e+04	5.181e-05	2.600e-06	  174.18°	  173.82°
Total Harmonic Distortion: 0.007966%(0.048765%)

.step vpin=0.85
N-Period=4
Fourier components of V(out)
DC component:-0.13079

Harmonic	Frequency	 Fourier 	Normalized	 Phase  	Normalized
 Number 	  [Hz]   	Component	 Component	[degree]	Phase [deg]
    1   	1.000e+03	2.053e+01	1.000e+00	    0.37°	    0.00°
    2   	2.000e+03	1.090e-03	5.310e-05	  174.79°	  174.43°
    3   	3.000e+03	6.140e-04	2.991e-05	 -175.74°	 -176.10°
    4   	4.000e+03	5.347e-04	2.604e-05	 -179.82°	 -180.19°
    5   	5.000e+03	3.845e-04	1.873e-05	 -176.44°	 -176.80°
    6   	6.000e+03	3.773e-04	1.838e-05	 -179.65°	 -180.01°
    7   	7.000e+03	2.870e-04	1.398e-05	 -174.77°	 -175.14°
    8   	8.000e+03	2.881e-04	1.403e-05	 -179.39°	 -179.75°
    9   	9.000e+03	2.308e-04	1.124e-05	 -168.50°	 -168.87°
   10   	1.000e+04	2.163e-04	1.053e-05	  179.92°	  179.55°
   11   	1.100e+04	1.819e-04	8.861e-06	 -171.45°	 -171.81°
   12   	1.200e+04	1.667e-04	8.120e-06	  178.88°	  178.52°
   13   	1.300e+04	1.522e-04	7.415e-06	  173.19°	  172.82°
   14   	1.400e+04	1.491e-04	7.261e-06	  179.46°	  179.09°
   15   	1.500e+04	1.403e-04	6.832e-06	  166.27°	  165.90°
   16   	1.600e+04	1.465e-04	7.134e-06	 -178.74°	 -179.10°
   17   	1.700e+04	1.216e-04	5.920e-06	  178.35°	  177.98°
   18   	1.800e+04	1.315e-04	6.404e-06	 -178.21°	 -178.58°
   19   	1.900e+04	1.057e-04	5.150e-06	 -167.33°	 -167.70°
   20   	2.000e+04	1.012e-04	4.929e-06	  179.59°	  179.23°
   21   	2.100e+04	9.150e-05	4.457e-06	 -175.95°	 -176.32°
   22   	2.200e+04	7.966e-05	3.880e-06	  176.53°	  176.16°
   23   	2.300e+04	9.436e-05	4.596e-06	  162.60°	  162.23°
   24   	2.400e+04	8.142e-05	3.966e-06	  178.59°	  178.22°
   25   	2.500e+04	9.276e-05	4.518e-06	  161.57°	  161.21°
   26   	2.600e+04	9.101e-05	4.433e-06	 -177.36°	 -177.72°
   27   	2.700e+04	7.566e-05	3.685e-06	 -176.75°	 -177.11°
   28   	2.800e+04	8.365e-05	4.074e-06	 -176.79°	 -177.16°
   29   	2.900e+04	6.571e-05	3.201e-06	 -159.26°	 -159.62°
   30   	3.000e+04	6.087e-05	2.965e-06	  178.12°	  177.76°
Total Harmonic Distortion: 0.007968%(0.048765%)

.step vpin=0.875
N-Period=4
Fourier components of V(out)
DC component:-0.134628

Harmonic	Frequency	 Fourier 	Normalized	 Phase  	Normalized
 Number 	  [Hz]   	Component	 Component	[degree]	Phase [deg]
    1   	1.000e+03	2.113e+01	1.000e+00	    0.37°	    0.00°
    2   	2.000e+03	1.124e-03	5.316e-05	  174.62°	  174.26°
    3   	3.000e+03	6.317e-04	2.989e-05	 -175.82°	 -176.18°
    4   	4.000e+03	5.486e-04	2.596e-05	 -179.81°	 -180.17°
    5   	5.000e+03	3.956e-04	1.872e-05	 -176.22°	 -176.59°
    6   	6.000e+03	3.867e-04	1.829e-05	 -179.71°	 -180.07°
    7   	7.000e+03	2.938e-04	1.390e-05	 -175.50°	 -175.87°
    8   	8.000e+03	2.972e-04	1.406e-05	 -179.36°	 -179.73°
    9   	9.000e+03	2.370e-04	1.121e-05	 -169.20°	 -169.57°
   10   	1.000e+04	2.261e-04	1.070e-05	 -179.89°	 -180.25°
   11   	1.100e+04	1.890e-04	8.942e-06	 -169.75°	 -170.12°
   12   	1.200e+04	1.731e-04	8.192e-06	  179.01°	  178.64°
   13   	1.300e+04	1.554e-04	7.355e-06	  176.63°	  176.26°
   14   	1.400e+04	1.499e-04	7.092e-06	  179.09°	  178.73°
   15   	1.500e+04	1.435e-04	6.788e-06	  166.04°	  165.68°
   16   	1.600e+04	1.466e-04	6.937e-06	 -179.19°	 -179.55°
   17   	1.700e+04	1.267e-04	5.996e-06	  173.41°	  173.04°
   18   	1.800e+04	1.375e-04	6.507e-06	 -178.06°	 -178.43°
   19   	1.900e+04	1.097e-04	5.190e-06	 -170.25°	 -170.62°
   20   	2.000e+04	1.112e-04	5.262e-06	 -179.31°	 -179.68°
   21   	2.100e+04	9.481e-05	4.486e-06	 -169.63°	 -170.00°
   22   	2.200e+04	8.445e-05	3.996e-06	  177.26°	  176.89°
   23   	2.300e+04	9.090e-05	4.301e-06	  169.56°	  169.19°
   24   	2.400e+04	7.768e-05	3.676e-06	  176.92°	  176.56°
   25   	2.500e+04	9.642e-05	4.562e-06	  158.92°	  158.56°
   26   	2.600e+04	8.716e-05	4.124e-06	 -178.90°	 -179.26°
   27   	2.700e+04	8.311e-05	3.932e-06	  171.39°	  171.02°
   28   	2.800e+04	8.961e-05	4.240e-06	 -176.33°	 -176.69°
   29   	2.900e+04	6.938e-05	3.283e-06	 -164.09°	 -164.46°
   30   	3.000e+04	7.249e-05	3.430e-06	 -178.46°	 -178.83°
Total Harmonic Distortion: 0.007969%(0.048765%)

.step vpin=0.9
N-Period=4
Fourier components of V(out)
DC component:-0.138467

Harmonic	Frequency	 Fourier 	Normalized	 Phase  	Normalized
 Number 	  [Hz]   	Component	 Component	[degree]	Phase [deg]
    1   	1.000e+03	2.174e+01	1.000e+00	    0.37°	    0.00°
    2   	2.000e+03	1.157e-03	5.323e-05	  174.45°	  174.08°
    3   	3.000e+03	6.491e-04	2.986e-05	 -175.93°	 -176.30°
    4   	4.000e+03	5.625e-04	2.588e-05	 -179.78°	 -180.15°
    5   	5.000e+03	4.070e-04	1.872e-05	 -175.97°	 -176.33°
    6   	6.000e+03	3.960e-04	1.822e-05	 -179.77°	 -180.14°
    7   	7.000e+03	3.007e-04	1.383e-05	 -176.11°	 -176.47°
    8   	8.000e+03	3.058e-04	1.407e-05	 -179.35°	 -179.72°
    9   	9.000e+03	2.429e-04	1.117e-05	 -170.02°	 -170.39°
   10   	1.000e+04	2.357e-04	1.084e-05	 -179.72°	 -180.09°
   11   	1.100e+04	1.958e-04	9.009e-06	 -168.66°	 -169.02°
   12   	1.200e+04	1.804e-04	8.296e-06	  179.19°	  178.83°
   13   	1.300e+04	1.594e-04	7.332e-06	 -179.99°	 -180.36°
   14   	1.400e+04	1.518e-04	6.983e-06	  178.84°	  178.48°
   15   	1.500e+04	1.458e-04	6.707e-06	  167.03°	  166.66°
   16   	1.600e+04	1.462e-04	6.725e-06	 -179.69°	 -180.05°
   17   	1.700e+04	1.319e-04	6.068e-06	  169.63°	  169.26°
   18   	1.800e+04	1.413e-04	6.502e-06	 -178.16°	 -178.52°
   19   	1.900e+04	1.137e-04	5.228e-06	 -174.75°	 -175.12°
   20   	2.000e+04	1.205e-04	5.542e-06	 -178.53°	 -178.89°
   21   	2.100e+04	9.904e-05	4.556e-06	 -166.78°	 -167.14°
   22   	2.200e+04	9.187e-05	4.226e-06	  178.48°	  178.12°
   23   	2.300e+04	8.916e-05	4.101e-06	  178.06°	  177.70°
   24   	2.400e+04	7.698e-05	3.541e-06	  176.13°	  175.76°
   25   	2.500e+04	9.564e-05	4.399e-06	  160.42°	  160.06°
   26   	2.600e+04	8.198e-05	3.771e-06	  179.14°	  178.78°
   27   	2.700e+04	9.088e-05	4.180e-06	  163.28°	  162.92°
   28   	2.800e+04	9.040e-05	4.158e-06	 -176.95°	 -177.31°
   29   	2.900e+04	7.397e-05	3.403e-06	 -174.93°	 -175.30°
   30   	3.000e+04	8.251e-05	3.796e-06	 -176.58°	 -176.94°
Total Harmonic Distortion: 0.007969%(0.048765%)

.step vpin=0.925
N-Period=4
Fourier components of V(out)
DC component:-0.142305

Harmonic	Frequency	 Fourier 	Normalized	 Phase  	Normalized
 Number 	  [Hz]   	Component	 Component	[degree]	Phase [deg]
    1   	1.000e+03	2.234e+01	1.000e+00	    0.37°	    0.00°
    2   	2.000e+03	1.191e-03	5.330e-05	  174.27°	  173.90°
    3   	3.000e+03	6.662e-04	2.982e-05	 -176.08°	 -176.44°
    4   	4.000e+03	5.764e-04	2.580e-05	 -179.75°	 -180.12°
    5   	5.000e+03	4.186e-04	1.874e-05	 -175.68°	 -176.05°
    6   	6.000e+03	4.053e-04	1.814e-05	 -179.84°	 -180.20°
    7   	7.000e+03	3.078e-04	1.377e-05	 -176.59°	 -176.96°
    8   	8.000e+03	3.141e-04	1.406e-05	 -179.36°	 -179.73°
    9   	9.000e+03	2.486e-04	1.113e-05	 -170.89°	 -171.26°
   10   	1.000e+04	2.450e-04	1.097e-05	 -179.58°	 -179.95°
   11   	1.100e+04	2.024e-04	9.058e-06	 -168.07°	 -168.43°
   12   	1.200e+04	1.881e-04	8.420e-06	  179.41°	  179.04°
   13   	1.300e+04	1.640e-04	7.342e-06	 -176.91°	 -177.28°
   14   	1.400e+04	1.548e-04	6.929e-06	  178.72°	  178.36°
   15   	1.500e+04	1.476e-04	6.608e-06	  168.92°	  168.56°
   16   	1.600e+04	1.458e-04	6.525e-06	  179.82°	  179.45°
   17   	1.700e+04	1.365e-04	6.111e-06	  167.15°	  166.79°
   18   	1.800e+04	1.433e-04	6.416e-06	 -178.43°	 -178.80°
   19   	1.900e+04	1.181e-04	5.286e-06	 -179.77°	 -180.13°
   20   	2.000e+04	1.282e-04	5.737e-06	 -178.07°	 -178.43°
   21   	2.100e+04	1.031e-04	4.615e-06	 -167.01°	 -167.38°
   22   	2.200e+04	1.007e-04	4.506e-06	  179.75°	  179.39°
   23   	2.300e+04	9.020e-05	4.037e-06	 -174.21°	 -174.58°
   24   	2.400e+04	7.951e-05	3.558e-06	  176.36°	  176.00°
   25   	2.500e+04	9.232e-05	4.132e-06	  165.26°	  164.90°
   26   	2.600e+04	7.770e-05	3.478e-06	  177.28°	  176.91°
   27   	2.700e+04	9.576e-05	4.286e-06	  159.47°	  159.10°
   28   	2.800e+04	8.740e-05	3.912e-06	 -178.36°	 -178.72°
   29   	2.900e+04	8.100e-05	3.625e-06	  173.68°	  173.31°
   30   	3.000e+04	8.844e-05	3.958e-06	 -176.05°	 -176.41°
Total Harmonic Distortion: 0.007969%(0.048765%)

.step vpin=0.95
N-Period=4
Fourier components of V(out)
DC component:-0.146144

Harmonic	Frequency	 Fourier 	Normalized	 Phase  	Normalized
 Number 	  [Hz]   	Component	 Component	[degree]	Phase [deg]
    1   	1.000e+03	2.295e+01	1.000e+00	    0.37°	    0.00°
    2   	2.000e+03	1.225e-03	5.338e-05	  174.08°	  173.71°
    3   	3.000e+03	6.830e-04	2.977e-05	 -176.26°	 -176.62°
    4   	4.000e+03	5.903e-04	2.573e-05	 -179.71°	 -180.07°
    5   	5.000e+03	4.303e-04	1.875e-05	 -175.38°	 -175.74°
    6   	6.000e+03	4.148e-04	1.807e-05	 -179.90°	 -180.26°
    7   	7.000e+03	3.149e-04	1.372e-05	 -176.98°	 -177.34°
    8   	8.000e+03	3.219e-04	1.403e-05	 -179.38°	 -179.75°
    9   	9.000e+03	2.543e-04	1.108e-05	 -171.77°	 -172.14°
   10   	1.000e+04	2.539e-04	1.107e-05	 -179.48°	 -179.84°
   11   	1.100e+04	2.086e-04	9.090e-06	 -167.88°	 -168.24°
   12   	1.200e+04	1.962e-04	8.550e-06	  179.63°	  179.26°
   13   	1.300e+04	1.692e-04	7.375e-06	 -174.28°	 -174.64°
   14   	1.400e+04	1.588e-04	6.921e-06	  178.72°	  178.35°
   15   	1.500e+04	1.494e-04	6.512e-06	  171.44°	  171.08°
   16   	1.600e+04	1.458e-04	6.353e-06	  179.37°	  179.01°
   17   	1.700e+04	1.403e-04	6.112e-06	  165.93°	  165.56°
   18   	1.800e+04	1.441e-04	6.278e-06	 -178.83°	 -179.19°
   19   	1.900e+04	1.230e-04	5.362e-06	  175.51°	  175.15°
   20   	2.000e+04	1.341e-04	5.842e-06	 -177.89°	 -178.25°
   21   	2.100e+04	1.069e-04	4.660e-06	 -169.54°	 -169.91°
   22   	2.200e+04	1.097e-04	4.783e-06	 -179.19°	 -179.55°
   23   	2.300e+04	9.324e-05	4.063e-06	 -168.92°	 -169.29°
   24   	2.400e+04	8.477e-05	3.694e-06	  177.34°	  176.98°
   25   	2.500e+04	8.911e-05	3.883e-06	  172.38°	  172.02°
   26   	2.600e+04	7.566e-05	3.297e-06	  176.04°	  175.68°
   27   	2.700e+04	9.656e-05	4.208e-06	  159.35°	  158.99°
   28   	2.800e+04	8.269e-05	3.603e-06	  179.76°	  179.39°
   29   	2.900e+04	8.882e-05	3.871e-06	  165.24°	  164.87°
   30   	3.000e+04	8.981e-05	3.914e-06	 -176.55°	 -176.92°
Total Harmonic Distortion: 0.007967%(0.048765%)

.step vpin=0.975
N-Period=4
Fourier components of V(out)
DC component:-0.149983

Harmonic	Frequency	 Fourier 	Normalized	 Phase  	Normalized
 Number 	  [Hz]   	Component	 Component	[degree]	Phase [deg]
    1   	1.000e+03	2.355e+01	1.000e+00	    0.37°	    0.00°
    2   	2.000e+03	1.259e-03	5.346e-05	  173.89°	  173.52°
    3   	3.000e+03	6.995e-04	2.970e-05	 -176.47°	 -176.84°
    4   	4.000e+03	6.041e-04	2.565e-05	 -179.66°	 -180.02°
    5   	5.000e+03	4.422e-04	1.878e-05	 -175.05°	 -175.42°
    6   	6.000e+03	4.243e-04	1.802e-05	 -179.96°	 -180.32°
    7   	7.000e+03	3.222e-04	1.368e-05	 -177.27°	 -177.63°
    8   	8.000e+03	3.295e-04	1.399e-05	 -179.41°	 -179.78°
    9   	9.000e+03	2.599e-04	1.104e-05	 -172.62°	 -172.99°
   10   	1.000e+04	2.625e-04	1.115e-05	 -179.40°	 -179.76°
   11   	1.100e+04	2.145e-04	9.107e-06	 -168.00°	 -168.36°
   12   	1.200e+04	2.044e-04	8.681e-06	  179.84°	  179.47°
   13   	1.300e+04	1.748e-04	7.421e-06	 -172.14°	 -172.50°
   14   	1.400e+04	1.637e-04	6.951e-06	  178.80°	  178.43°
   15   	1.500e+04	1.515e-04	6.433e-06	  174.31°	  173.95°
   16   	1.600e+04	1.464e-04	6.218e-06	  179.02°	  178.65°
   17   	1.700e+04	1.430e-04	6.074e-06	  165.79°	  165.43°
   18   	1.800e+04	1.440e-04	6.114e-06	 -179.30°	 -179.66°
   19   	1.900e+04	1.281e-04	5.441e-06	  171.58°	  171.22°
   20   	2.000e+04	1.381e-04	5.864e-06	 -177.93°	 -178.30°
   21   	2.100e+04	1.108e-04	4.705e-06	 -173.47°	 -173.84°
   22   	2.200e+04	1.182e-04	5.018e-06	 -178.43°	 -178.79°
   23   	2.300e+04	9.702e-05	4.120e-06	 -166.54°	 -166.90°
   24   	2.400e+04	9.195e-05	3.904e-06	  178.63°	  178.26°
   25   	2.500e+04	8.789e-05	3.732e-06	 -179.80°	 -180.17°
   26   	2.600e+04	7.636e-05	3.243e-06	  175.75°	  175.38°
   27   	2.700e+04	9.415e-05	3.998e-06	  162.32°	  161.95°
   28   	2.800e+04	7.820e-05	3.321e-06	  177.80°	  177.43°
   29   	2.900e+04	9.465e-05	4.019e-06	  160.53°	  160.17°
   30   	3.000e+04	8.758e-05	3.719e-06	 -177.82°	 -178.19°
Total Harmonic Distortion: 0.007966%(0.048764%)

.step vpin=1
N-Period=4
Fourier components of V(out)
DC component:-0.153823

Harmonic	Frequency	 Fourier 	Normalized	 Phase  	Normalized
 Number 	  [Hz]   	Component	 Component	[degree]	Phase [deg]
    1   	1.000e+03	2.415e+01	1.000e+00	    0.37°	    0.00°
    2   	2.000e+03	1.294e-03	5.356e-05	  173.69°	  173.32°
    3   	3.000e+03	7.157e-04	2.963e-05	 -176.72°	 -177.09°
    4   	4.000e+03	6.177e-04	2.557e-05	 -179.60°	 -179.96°
    5   	5.000e+03	4.542e-04	1.881e-05	 -174.71°	 -175.07°
    6   	6.000e+03	4.340e-04	1.797e-05	  179.98°	  179.62°
    7   	7.000e+03	3.295e-04	1.364e-05	 -177.48°	 -177.84°
    8   	8.000e+03	3.368e-04	1.395e-05	 -179.45°	 -179.81°
    9   	9.000e+03	2.656e-04	1.099e-05	 -173.42°	 -173.78°
   10   	1.000e+04	2.706e-04	1.121e-05	 -179.34°	 -179.71°
   11   	1.100e+04	2.201e-04	9.112e-06	 -168.35°	 -168.72°
   12   	1.200e+04	2.127e-04	8.805e-06	 -179.97°	 -180.33°
   13   	1.300e+04	1.804e-04	7.470e-06	 -170.49°	 -170.85°
   14   	1.400e+04	1.693e-04	7.010e-06	  178.94°	  178.58°
   15   	1.500e+04	1.541e-04	6.378e-06	  177.29°	  176.93°
   16   	1.600e+04	1.479e-04	6.122e-06	  178.77°	  178.40°
   17   	1.700e+04	1.450e-04	6.005e-06	  166.56°	  166.20°
   18   	1.800e+04	1.436e-04	5.946e-06	 -179.79°	 -180.15°
   19   	1.900e+04	1.329e-04	5.504e-06	  168.65°	  168.29°
   20   	2.000e+04	1.405e-04	5.819e-06	 -178.15°	 -178.51°
   21   	2.100e+04	1.150e-04	4.763e-06	 -177.99°	 -178.36°
   22   	2.200e+04	1.254e-04	5.190e-06	 -177.96°	 -178.32°
   23   	2.300e+04	1.008e-04	4.174e-06	 -166.74°	 -167.10°
   24   	2.400e+04	1.001e-04	4.145e-06	  179.87°	  179.51°
   25   	2.500e+04	8.903e-05	3.686e-06	 -173.05°	 -173.42°
   26   	2.600e+04	7.967e-05	3.298e-06	  176.33°	  175.96°
   27   	2.700e+04	9.053e-05	3.748e-06	  167.74°	  167.37°
   28   	2.800e+04	7.527e-05	3.116e-06	  176.24°	  175.87°
   29   	2.900e+04	9.692e-05	4.013e-06	  159.14°	  158.77°
   30   	3.000e+04	8.341e-05	3.453e-06	 -179.60°	 -179.97°
Total Harmonic Distortion: 0.007964%(0.048764%)

.step vpin=1.025
N-Period=4
Fourier components of V(out)
DC component:-0.157663

Harmonic	Frequency	 Fourier 	Normalized	 Phase  	Normalized
 Number 	  [Hz]   	Component	 Component	[degree]	Phase [deg]
    1   	1.000e+03	2.476e+01	1.000e+00	    0.37°	    0.00°
    2   	2.000e+03	1.328e-03	5.366e-05	  173.48°	  173.11°
    3   	3.000e+03	7.315e-04	2.955e-05	 -177.01°	 -177.38°
    4   	4.000e+03	6.311e-04	2.549e-05	 -179.53°	 -179.89°
    5   	5.000e+03	4.664e-04	1.884e-05	 -174.35°	 -174.72°
    6   	6.000e+03	4.438e-04	1.793e-05	  179.93°	  179.56°
    7   	7.000e+03	3.369e-04	1.361e-05	 -177.63°	 -178.00°
    8   	8.000e+03	3.439e-04	1.389e-05	 -179.49°	 -179.86°
    9   	9.000e+03	2.712e-04	1.095e-05	 -174.14°	 -174.50°
   10   	1.000e+04	2.785e-04	1.125e-05	 -179.31°	 -179.67°
   11   	1.100e+04	2.255e-04	9.108e-06	 -168.88°	 -169.24°
   12   	1.200e+04	2.208e-04	8.919e-06	 -179.80°	 -180.17°
   13   	1.300e+04	1.861e-04	7.517e-06	 -169.30°	 -169.66°
   14   	1.400e+04	1.755e-04	7.088e-06	  179.13°	  178.76°
   15   	1.500e+04	1.572e-04	6.349e-06	 -179.82°	 -180.19°
   16   	1.600e+04	1.501e-04	6.065e-06	  178.63°	  178.26°
   17   	1.700e+04	1.465e-04	5.919e-06	  168.05°	  167.69°
   18   	1.800e+04	1.433e-04	5.788e-06	  179.74°	  179.38°
   19   	1.900e+04	1.371e-04	5.537e-06	  166.74°	  166.37°
   20   	2.000e+04	1.418e-04	5.726e-06	 -178.49°	 -178.86°
   21   	2.100e+04	1.197e-04	4.836e-06	  177.55°	  177.19°
   22   	2.200e+04	1.311e-04	5.294e-06	 -177.74°	 -178.11°
   23   	2.300e+04	1.045e-04	4.220e-06	 -168.89°	 -169.26°
   24   	2.400e+04	1.084e-04	4.379e-06	 -179.11°	 -179.47°
   25   	2.500e+04	9.178e-05	3.707e-06	 -168.49°	 -168.85°
   26   	2.600e+04	8.509e-05	3.437e-06	  177.45°	  177.08°
   27   	2.700e+04	8.771e-05	3.543e-06	  174.67°	  174.30°
   28   	2.800e+04	7.456e-05	3.012e-06	  175.45°	  175.09°
   29   	2.900e+04	9.579e-05	3.869e-06	  160.54°	  160.18°
   30   	3.000e+04	7.896e-05	3.189e-06	  178.42°	  178.06°
Total Harmonic Distortion: 0.007964%(0.048764%)

.step vpin=1.05
N-Period=4
Fourier components of V(out)
DC component:-0.161503

Harmonic	Frequency	 Fourier 	Normalized	 Phase  	Normalized
 Number 	  [Hz]   	Component	 Component	[degree]	Phase [deg]
    1   	1.000e+03	2.536e+01	1.000e+00	    0.37°	    0.00°
    2   	2.000e+03	1.364e-03	5.377e-05	  173.26°	  172.90°
    3   	3.000e+03	7.470e-04	2.945e-05	 -177.34°	 -177.71°
    4   	4.000e+03	6.442e-04	2.540e-05	 -179.45°	 -179.81°
    5   	5.000e+03	4.787e-04	1.888e-05	 -173.98°	 -174.34°
    6   	6.000e+03	4.540e-04	1.790e-05	  179.88°	  179.51°
    7   	7.000e+03	3.444e-04	1.358e-05	 -177.74°	 -178.11°
    8   	8.000e+03	3.508e-04	1.383e-05	 -179.53°	 -179.90°
    9   	9.000e+03	2.769e-04	1.092e-05	 -174.77°	 -175.14°
   10   	1.000e+04	2.860e-04	1.128e-05	 -179.29°	 -179.65°
   11   	1.100e+04	2.307e-04	9.097e-06	 -169.52°	 -169.88°
   12   	1.200e+04	2.288e-04	9.021e-06	 -179.66°	 -180.02°
   13   	1.300e+04	1.917e-04	7.558e-06	 -168.50°	 -168.87°
   14   	1.400e+04	1.821e-04	7.179e-06	  179.33°	  178.97°
   15   	1.500e+04	1.609e-04	6.343e-06	 -177.17°	 -177.53°
   16   	1.600e+04	1.532e-04	6.041e-06	  178.58°	  178.22°
   17   	1.700e+04	1.478e-04	5.829e-06	  170.08°	  169.72°
   18   	1.800e+04	1.433e-04	5.651e-06	  179.32°	  178.96°
   19   	1.900e+04	1.404e-04	5.537e-06	  165.78°	  165.41°
   20   	2.000e+04	1.421e-04	5.603e-06	 -178.91°	 -179.28°
   21   	2.100e+04	1.247e-04	4.915e-06	  173.62°	  173.25°
   22   	2.200e+04	1.352e-04	5.332e-06	 -177.74°	 -178.10°
   23   	2.300e+04	1.082e-04	4.267e-06	 -172.33°	 -172.69°
   24   	2.400e+04	1.162e-04	4.580e-06	 -178.36°	 -178.72°
   25   	2.500e+04	9.521e-05	3.754e-06	 -166.39°	 -166.76°
   26   	2.600e+04	9.196e-05	3.626e-06	  178.74°	  178.37°
   27   	2.700e+04	8.684e-05	3.424e-06	 -178.22°	 -178.58°
   28   	2.800e+04	7.620e-05	3.005e-06	  175.55°	  175.18°
   29   	2.900e+04	9.259e-05	3.651e-06	  164.32°	  163.95°
   30   	3.000e+04	7.548e-05	2.976e-06	  176.65°	  176.29°
Total Harmonic Distortion: 0.007964%(0.048765%)



Measurement: vrms
  step	RMS(v(out))	FROM	TO
     1	0.427012	0.001	0.01
     2	0.85402	0.001	0.01
     3	1.28103	0.001	0.01
     4	1.70804	0.001	0.01
     5	2.13504	0.001	0.01
     6	2.56205	0.001	0.01
     7	2.98906	0.001	0.01
     8	3.41607	0.001	0.01
     9	3.84307	0.001	0.01
    10	4.27008	0.001	0.01
    11	4.69709	0.001	0.01
    12	5.1241	0.001	0.01
    13	5.5511	0.001	0.01
    14	5.97811	0.001	0.01
    15	6.40512	0.001	0.01
    16	6.83213	0.001	0.01
    17	7.25913	0.001	0.01
    18	7.68614	0.001	0.01
    19	8.11315	0.001	0.01
    20	8.54015	0.001	0.01
    21	8.96715	0.001	0.01
    22	9.39415	0.001	0.01
    23	9.82114	0.001	0.01
    24	10.2481	0.001	0.01
    25	10.6751	0.001	0.01
    26	11.1021	0.001	0.01
    27	11.5291	0.001	0.01
    28	11.9562	0.001	0.01
    29	12.3832	0.001	0.01
    30	12.8102	0.001	0.01
    31	13.2372	0.001	0.01
    32	13.6642	0.001	0.01
    33	14.0912	0.001	0.01
    34	14.5182	0.001	0.01
    35	14.9452	0.001	0.01
    36	15.3722	0.001	0.01
    37	15.7992	0.001	0.01
    38	16.2262	0.001	0.01
    39	16.6532	0.001	0.01
    40	17.0803	0.001	0.00999986
    41	17.5072	0.001	0.01
    42	17.9342	0.001	0.01

Measurement: pout
  step	AVG(v(out)*i(rl))	FROM	TO
     1	0.0227925	0.001	0.01
     2	0.0911688	0.001	0.01
     3	0.205129	0.001	0.01
     4	0.364673	0.001	0.01
     5	0.569802	0.001	0.01
     6	0.820514	0.001	0.01
     7	1.11681	0.001	0.01
     8	1.45869	0.001	0.01
     9	1.84615	0.001	0.01
    10	2.2792	0.001	0.01
    11	2.75783	0.001	0.01
    12	3.28205	0.001	0.01
    13	3.85185	0.001	0.01
    14	4.46723	0.001	0.01
    15	5.12819	0.001	0.01
    16	5.83474	0.001	0.01
    17	6.58688	0.001	0.01
    18	7.38459	0.001	0.01
    19	8.22789	0.001	0.01
    20	9.11677	0.001	0.01
    21	10.0512	0.001	0.01
    22	11.0312	0.001	0.01
    23	12.0569	0.001	0.01
    24	13.1281	0.001	0.01
    25	14.2448	0.001	0.01
    26	15.4072	0.001	0.01
    27	16.6152	0.001	0.01
    28	17.8687	0.001	0.01
    29	19.1678	0.001	0.01
    30	20.5125	0.001	0.01
    31	21.9028	0.001	0.01
    32	23.3386	0.001	0.01
    33	24.8201	0.001	0.01
    34	26.3471	0.001	0.01
    35	27.9197	0.001	0.01
    36	29.5379	0.001	0.01
    37	31.2017	0.001	0.01
    38	32.911	0.001	0.01
    39	34.666	0.001	0.01
    40	36.467	0.001	0.00999986
    41	38.3126	0.001	0.01
    42	40.2042	0.001	0.01

Measurement: vout_max
  step	MAX(v(out))	FROM	TO
     1	0.59989	0	0.01
     2	1.2002	0	0.01
     3	1.80051	0	0.01
     4	2.40082	0	0.01
     5	3.00113	0	0.01
     6	3.60144	0	0.01
     7	4.20175	0	0.01
     8	4.80206	0	0.01
     9	5.40237	0	0.01
    10	6.00267	0	0.01
    11	6.60298	0	0.01
    12	7.20329	0	0.01
    13	7.8036	0	0.01
    14	8.4039	0	0.01
    15	9.00421	0	0.01
    16	9.60451	0	0.01
    17	10.2048	0	0.01
    18	10.8051	0	0.01
    19	11.4054	0	0.01
    20	12.0057	0	0.01
    21	12.606	0	0.01
    22	13.2063	0	0.01
    23	13.8065	0	0.01
    24	14.4068	0	0.01
    25	15.0071	0	0.01
    26	15.6074	0	0.01
    27	16.2077	0	0.01
    28	16.808	0	0.01
    29	17.4083	0	0.01
    30	18.0086	0	0.01
    31	18.6089	0	0.01
    32	19.2092	0	0.01
    33	19.8095	0	0.01
    34	20.4098	0	0.01
    35	21.01	0	0.01
    36	21.6103	0	0.01
    37	22.2106	0	0.01
    38	22.8109	0	0.01
    39	23.4112	0	0.01
    40	24.0114	0	0.00999986
    41	24.6117	0	0.01
    42	25.212	0	0.01


Date: Sun Nov 24 23:29:58 2019
Total elapsed time: 1499.478 seconds.

tnom = 27
temp = 27
method = modified trap
totiter = 283283
traniter = 281175
tranpoints = 140444
accept = 140250
rejected = 194
matrix size = 103
fillins = 180
Matrix Compiler1: 23.94 KB object code size  13.4/10.9/[7.3]
Matrix Compiler2: 14.49 KB object code size  6.1/6.5/[6.3]

