Circuit: * C:\Users\bakaneko\Facultad\Materias\Circuitos Electrónicos II\TPS\REPO-TPS\REPO\TP_Final\LTSPICE\amplifier_V_2.1\amplifier_V2.1.asc

Direct Newton iteration failed to find .op point.  (Use ".option noopiter" to skip.)
Starting Gmin stepping
Gmin = 10
Gmin = 1.07374
Gmin = 0.115292
Gmin = 0.0123794
Gmin = 0.00132923
Gmin = 0.000142725
Gmin = 1.5325e-005
Gmin = 1.6455e-006
Gmin = 1.76685e-007
Gmin = 1.89714e-008
Gmin = 2.03704e-009
Gmin = 2.18725e-010
Gmin = 2.34854e-011
Gmin = 2.52173e-012
Gmin = 2.70769e-013
Gmin = 0
Gmin stepping succeeded in finding the operating point.

.step freq=0
Bad frequency found in .fourier command: ".fourier  0  30 4 v(out)"

.step freq=1000
N-Period=4
Fourier components of V(out)
DC component:-0.0061755

Harmonic	Frequency	 Fourier 	Normalized	 Phase  	Normalized
 Number 	  [Hz]   	Component	 Component	[degree]	Phase [deg]
    1   	1.000e+03	3.099e+01	1.000e+00	   -0.07°	    0.00°
    2   	2.000e+03	4.153e-04	1.340e-05	   79.11°	   79.18°
    3   	3.000e+03	7.200e-04	2.323e-05	    6.64°	    6.71°
    4   	4.000e+03	9.913e-05	3.199e-06	   93.98°	   94.06°
    5   	5.000e+03	4.685e-05	1.512e-06	  172.60°	  172.68°
    6   	6.000e+03	4.749e-05	1.532e-06	  -59.48°	  -59.41°
    7   	7.000e+03	1.289e-04	4.160e-06	   26.48°	   26.55°
    8   	8.000e+03	1.518e-05	4.897e-07	  105.87°	  105.95°
    9   	9.000e+03	4.081e-05	1.317e-06	   53.70°	   53.77°
   10   	1.000e+04	3.144e-05	1.015e-06	  -70.67°	  -70.60°
   11   	1.100e+04	3.980e-05	1.284e-06	   70.57°	   70.65°
   12   	1.200e+04	1.057e-05	3.411e-07	  -94.72°	  -94.65°
   13   	1.300e+04	3.164e-05	1.021e-06	  140.99°	  141.06°
   14   	1.400e+04	6.956e-06	2.244e-07	  -84.96°	  -84.89°
   15   	1.500e+04	3.194e-05	1.031e-06	  155.52°	  155.59°
   16   	1.600e+04	4.667e-06	1.506e-07	  114.25°	  114.32°
   17   	1.700e+04	2.149e-05	6.935e-07	  154.89°	  154.96°
   18   	1.800e+04	9.115e-06	2.941e-07	  100.78°	  100.85°
   19   	1.900e+04	1.083e-05	3.496e-07	   92.02°	   92.10°
   20   	2.000e+04	8.511e-06	2.746e-07	   96.49°	   96.56°
   21   	2.100e+04	2.019e-05	6.514e-07	   42.93°	   43.01°
   22   	2.200e+04	4.034e-06	1.302e-07	   86.69°	   86.76°
   23   	2.300e+04	2.340e-05	7.552e-07	   36.91°	   36.98°
   24   	2.400e+04	1.377e-06	4.443e-08	  -34.57°	  -34.50°
   25   	2.500e+04	1.501e-05	4.842e-07	   40.47°	   40.54°
   26   	2.600e+04	3.327e-06	1.074e-07	  -67.46°	  -67.39°
   27   	2.700e+04	2.242e-06	7.235e-08	  114.07°	  114.15°
   28   	2.800e+04	2.118e-06	6.833e-08	  -72.97°	  -72.90°
   29   	2.900e+04	1.172e-05	3.781e-07	 -152.50°	 -152.43°
   30   	3.000e+04	1.128e-06	3.640e-08	  114.45°	  114.52°
Total Harmonic Distortion: 0.002758%(0.002771%)

.step freq=2000
N-Period=4
Fourier components of V(out)
DC component:-0.00288761

Harmonic	Frequency	 Fourier 	Normalized	 Phase  	Normalized
 Number 	  [Hz]   	Component	 Component	[degree]	Phase [deg]
    1   	2.000e+03	3.099e+01	1.000e+00	   -0.16°	    0.00°
    2   	4.000e+03	3.922e-04	1.266e-05	   65.94°	   66.11°
    3   	6.000e+03	7.202e-04	2.324e-05	   12.91°	   13.07°
    4   	8.000e+03	7.243e-05	2.337e-06	  100.42°	  100.58°
    5   	1.000e+04	4.479e-05	1.445e-06	  158.97°	  159.13°
    6   	1.200e+04	8.263e-05	2.666e-06	  -53.87°	  -53.70°
    7   	1.400e+04	1.629e-04	5.257e-06	   44.68°	   44.84°
    8   	1.600e+04	8.791e-06	2.837e-07	 -156.90°	 -156.73°
    9   	1.800e+04	6.688e-05	2.158e-06	   71.82°	   71.98°
   10   	2.000e+04	4.541e-05	1.465e-06	  -63.82°	  -63.65°
   11   	2.200e+04	7.193e-05	2.321e-06	   81.17°	   81.34°
   12   	2.400e+04	1.292e-05	4.170e-07	 -103.40°	 -103.24°
   13   	2.600e+04	4.346e-05	1.403e-06	  124.05°	  124.22°
   14   	2.800e+04	3.970e-06	1.281e-07	  -93.66°	  -93.49°
   15   	3.000e+04	3.389e-05	1.094e-06	  134.66°	  134.83°
   16   	3.200e+04	9.984e-06	3.222e-07	  118.26°	  118.43°
   17   	3.400e+04	2.100e-05	6.778e-07	  121.61°	  121.77°
   18   	3.600e+04	1.216e-05	3.924e-07	  105.09°	  105.25°
   19   	3.800e+04	2.370e-05	7.649e-07	   71.12°	   71.28°
   20   	4.000e+04	9.143e-06	2.950e-07	   92.34°	   92.50°
   21   	4.200e+04	3.333e-05	1.076e-06	   56.09°	   56.25°
   22   	4.400e+04	5.545e-06	1.789e-07	   59.02°	   59.19°
   23   	4.600e+04	3.114e-05	1.005e-06	   57.06°	   57.22°
   24   	4.800e+04	5.446e-06	1.757e-07	   33.00°	   33.16°
   25   	5.000e+04	1.634e-05	5.272e-07	   68.21°	   68.37°
   26   	5.200e+04	6.366e-06	2.054e-07	   52.77°	   52.93°
   27   	5.400e+04	5.820e-06	1.878e-07	 -170.03°	 -169.87°
   28   	5.600e+04	8.991e-06	2.901e-07	   82.57°	   82.74°
   29   	5.800e+04	1.801e-05	5.813e-07	 -128.32°	 -128.16°
   30   	6.000e+04	1.106e-05	3.568e-07	  100.43°	  100.60°
Total Harmonic Distortion: 0.002762%(0.002734%)

.step freq=3000
N-Period=4
Fourier components of V(out)
DC component:-0.00179672

Harmonic	Frequency	 Fourier 	Normalized	 Phase  	Normalized
 Number 	  [Hz]   	Component	 Component	[degree]	Phase [deg]
    1   	3.000e+03	3.099e+01	1.000e+00	   -0.25°	    0.00°
    2   	6.000e+03	3.736e-04	1.206e-05	   50.79°	   51.04°
    3   	9.000e+03	7.417e-04	2.393e-05	   18.57°	   18.83°
    4   	1.200e+04	3.407e-05	1.100e-06	  131.54°	  131.79°
    5   	1.500e+04	5.262e-05	1.698e-06	  154.24°	  154.49°
    6   	1.800e+04	1.258e-04	4.059e-06	  -55.98°	  -55.73°
    7   	2.100e+04	2.040e-04	6.584e-06	   55.72°	   55.97°
    8   	2.400e+04	3.015e-05	9.728e-07	 -116.23°	 -115.97°
    9   	2.700e+04	9.348e-05	3.016e-06	   77.56°	   77.81°
   10   	3.000e+04	6.327e-05	2.042e-06	  -61.92°	  -61.67°
   11   	3.300e+04	1.031e-04	3.326e-06	   80.84°	   81.10°
   12   	3.600e+04	1.784e-05	5.755e-07	 -103.12°	 -102.87°
   13   	3.900e+04	5.147e-05	1.661e-06	  108.75°	  109.00°
   14   	4.200e+04	4.186e-06	1.351e-07	  -95.52°	  -95.27°
   15   	4.500e+04	3.310e-05	1.068e-06	  115.22°	  115.48°
   16   	4.800e+04	1.342e-05	4.331e-07	  126.37°	  126.62°
   17   	5.100e+04	2.015e-05	6.501e-07	   99.27°	   99.52°
   18   	5.400e+04	1.515e-05	4.889e-07	  114.44°	  114.69°
   19   	5.700e+04	2.908e-05	9.382e-07	   67.71°	   67.97°
   20   	6.000e+04	1.190e-05	3.840e-07	   98.39°	   98.64°
   21   	6.300e+04	4.031e-05	1.301e-06	   65.12°	   65.38°
   22   	6.600e+04	1.083e-05	3.495e-07	   64.95°	   65.20°
   23   	6.900e+04	3.938e-05	1.271e-06	   71.44°	   71.69°
   24   	7.200e+04	1.513e-05	4.883e-07	   52.57°	   52.82°
   25   	7.500e+04	2.396e-05	7.730e-07	   83.63°	   83.89°
   26   	7.800e+04	2.019e-05	6.514e-07	   61.25°	   61.50°
   27   	8.100e+04	5.251e-06	1.694e-07	  169.70°	  169.95°
   28   	8.400e+04	2.304e-05	7.434e-07	   75.19°	   75.44°
   29   	8.700e+04	2.027e-05	6.541e-07	 -108.23°	 -107.98°
   30   	9.000e+04	2.095e-05	6.761e-07	   90.74°	   90.99°
Total Harmonic Distortion: 0.002863%(0.002774%)

.step freq=4000
N-Period=4
Fourier components of V(out)
DC component:-0.00124883

Harmonic	Frequency	 Fourier 	Normalized	 Phase  	Normalized
 Number 	  [Hz]   	Component	 Component	[degree]	Phase [deg]
    1   	4.000e+03	3.099e+01	1.000e+00	   -0.34°	    0.00°
    2   	8.000e+03	3.664e-04	1.182e-05	   32.03°	   32.37°
    3   	1.200e+04	7.684e-04	2.480e-05	   23.31°	   23.65°
    4   	1.600e+04	5.052e-05	1.630e-06	 -130.96°	 -130.62°
    5   	2.000e+04	5.957e-05	1.922e-06	  153.06°	  153.40°
    6   	2.400e+04	1.817e-04	5.862e-06	  -60.21°	  -59.87°
    7   	2.800e+04	2.455e-04	7.922e-06	   62.41°	   62.75°
    8   	3.200e+04	6.445e-05	2.080e-06	 -109.08°	 -108.74°
    9   	3.600e+04	1.144e-04	3.690e-06	   81.41°	   81.75°
   10   	4.000e+04	8.501e-05	2.743e-06	  -64.54°	  -64.21°
   11   	4.400e+04	1.278e-04	4.125e-06	   80.66°	   81.00°
   12   	4.800e+04	2.382e-05	7.686e-07	 -107.53°	 -107.19°
   13   	5.200e+04	5.586e-05	1.802e-06	   98.41°	   98.75°
   14   	5.600e+04	2.912e-06	9.397e-08	 -116.77°	 -116.44°
   15   	6.000e+04	2.916e-05	9.409e-07	   92.96°	   93.30°
   16   	6.400e+04	1.808e-05	5.834e-07	  126.60°	  126.93°
   17   	6.800e+04	1.673e-05	5.400e-07	   61.69°	   62.03°
   18   	7.200e+04	1.779e-05	5.741e-07	  119.33°	  119.67°
   19   	7.600e+04	2.944e-05	9.501e-07	   56.68°	   57.02°
   20   	8.000e+04	1.254e-05	4.046e-07	  103.69°	  104.02°
   21   	8.400e+04	4.305e-05	1.389e-06	   70.81°	   71.15°
   22   	8.800e+04	1.378e-05	4.447e-07	   64.64°	   64.98°
   23   	9.200e+04	4.704e-05	1.518e-06	   84.28°	   84.62°
   24   	9.600e+04	2.471e-05	7.973e-07	   56.20°	   56.54°
   25   	1.000e+05	3.393e-05	1.095e-06	   97.18°	   97.51°
   26   	1.040e+05	3.666e-05	1.183e-06	   62.58°	   62.92°
   27   	1.080e+05	8.055e-06	2.599e-07	  136.89°	  137.23°
   28   	1.120e+05	4.178e-05	1.348e-06	   71.07°	   71.41°
   29   	1.160e+05	2.230e-05	7.197e-07	  -89.57°	  -89.23°
   30   	1.200e+05	3.468e-05	1.119e-06	   81.75°	   82.09°
Total Harmonic Distortion: 0.003031%(0.002937%)

.step freq=5000
N-Period=4
Fourier components of V(out)
DC component:-0.000918421

Harmonic	Frequency	 Fourier 	Normalized	 Phase  	Normalized
 Number 	  [Hz]   	Component	 Component	[degree]	Phase [deg]
    1   	5.000e+03	3.099e+01	1.000e+00	   -0.43°	    0.00°
    2   	1.000e+04	3.867e-04	1.248e-05	   10.66°	   11.08°
    3   	1.500e+04	7.940e-04	2.562e-05	   27.03°	   27.45°
    4   	2.000e+04	1.282e-04	4.136e-06	 -112.07°	 -111.64°
    5   	2.500e+04	6.807e-05	2.197e-06	  154.18°	  154.60°
    6   	3.000e+04	2.477e-04	7.994e-06	  -64.61°	  -64.19°
    7   	3.500e+04	2.862e-04	9.236e-06	   67.01°	   67.44°
    8   	4.000e+04	1.064e-04	3.432e-06	 -106.88°	 -106.45°
    9   	4.500e+04	1.305e-04	4.210e-06	   84.15°	   84.58°
   10   	5.000e+04	1.105e-04	3.565e-06	  -67.34°	  -66.91°
   11   	5.500e+04	1.447e-04	4.669e-06	   79.55°	   79.97°
   12   	6.000e+04	3.135e-05	1.012e-06	 -108.81°	 -108.38°
   13   	6.500e+04	5.116e-05	1.651e-06	   88.33°	   88.75°
   14   	7.000e+04	3.343e-06	1.079e-07	 -140.42°	 -140.00°
   15   	7.500e+04	2.051e-05	6.617e-07	   54.17°	   54.60°
   16   	8.000e+04	2.292e-05	7.397e-07	  131.45°	  131.87°
   17   	8.500e+04	1.841e-05	5.939e-07	   -1.88°	   -1.46°
   18   	9.000e+04	2.098e-05	6.770e-07	  130.96°	  131.39°
   19   	9.500e+04	2.469e-05	7.968e-07	   39.80°	   40.22°
   20   	1.000e+05	1.280e-05	4.129e-07	  120.63°	  121.06°
   21   	1.050e+05	4.360e-05	1.407e-06	   78.90°	   79.33°
   22   	1.100e+05	1.509e-05	4.868e-07	   63.97°	   64.40°
   23   	1.150e+05	5.788e-05	1.868e-06	   95.20°	   95.63°
   24   	1.200e+05	3.421e-05	1.104e-06	   54.00°	   54.43°
   25   	1.250e+05	4.696e-05	1.515e-06	  104.20°	  104.63°
   26   	1.300e+05	5.375e-05	1.734e-06	   59.01°	   59.44°
   27   	1.350e+05	1.177e-05	3.800e-07	  118.77°	  119.20°
   28   	1.400e+05	6.076e-05	1.961e-06	   65.79°	   66.21°
   29   	1.450e+05	2.843e-05	9.175e-07	  -74.27°	  -73.85°
   30   	1.500e+05	4.790e-05	1.546e-06	   75.45°	   75.87°
Total Harmonic Distortion: 0.003276%(0.003295%)

.step freq=6000
N-Period=4
Fourier components of V(out)
DC component:-0.00069457

Harmonic	Frequency	 Fourier 	Normalized	 Phase  	Normalized
 Number 	  [Hz]   	Component	 Component	[degree]	Phase [deg]
    1   	6.000e+03	3.099e+01	1.000e+00	   -0.51°	    0.00°
    2   	1.200e+04	4.529e-04	1.461e-05	   -9.65°	   -9.14°
    3   	1.800e+04	8.184e-04	2.641e-05	   29.66°	   30.17°
    4   	2.400e+04	2.261e-04	7.296e-06	 -106.65°	 -106.14°
    5   	3.000e+04	7.432e-05	2.398e-06	  157.81°	  158.33°
    6   	3.600e+04	3.281e-04	1.059e-05	  -68.68°	  -68.17°
    7   	4.200e+04	3.206e-04	1.035e-05	   70.10°	   70.61°
    8   	4.800e+04	1.591e-04	5.134e-06	 -106.34°	 -105.83°
    9   	5.400e+04	1.376e-04	4.442e-06	   87.65°	   88.16°
   10   	6.000e+04	1.390e-04	4.485e-06	  -71.57°	  -71.06°
   11   	6.600e+04	1.520e-04	4.904e-06	   79.24°	   79.75°
   12   	7.200e+04	3.901e-05	1.259e-06	 -114.32°	 -113.81°
   13   	7.800e+04	3.933e-05	1.269e-06	   76.45°	   76.96°
   14   	8.400e+04	4.793e-06	1.547e-07	  164.57°	  165.08°
   15   	9.000e+04	2.650e-05	8.552e-07	  -11.13°	  -10.62°
   16   	9.600e+04	2.814e-05	9.079e-07	  131.54°	  132.05°
   17   	1.020e+05	3.938e-05	1.271e-06	  -40.32°	  -39.81°
   18   	1.080e+05	2.242e-05	7.235e-07	  143.92°	  144.43°
   19   	1.140e+05	2.150e-05	6.937e-07	   -3.99°	   -3.48°
   20   	1.200e+05	1.165e-05	3.760e-07	  163.76°	  164.27°
   21   	1.260e+05	3.944e-05	1.273e-06	   90.47°	   90.98°
   22   	1.320e+05	8.567e-06	2.764e-07	   58.52°	   59.03°
   23   	1.380e+05	6.998e-05	2.258e-06	  106.50°	  107.01°
   24   	1.440e+05	3.805e-05	1.228e-06	   51.54°	   52.06°
   25   	1.500e+05	6.357e-05	2.051e-06	  111.30°	  111.81°
   26   	1.560e+05	6.936e-05	2.238e-06	   56.89°	   57.40°
   27   	1.620e+05	1.925e-05	6.212e-07	  112.94°	  113.45°
   28   	1.680e+05	8.159e-05	2.633e-06	   61.77°	   62.28°
   29   	1.740e+05	3.532e-05	1.140e-06	  -63.44°	  -62.92°
   30   	1.800e+05	6.277e-05	2.026e-06	   68.75°	   69.26°
Total Harmonic Distortion: 0.003629%(0.003998%)

.step freq=7000
N-Period=4
Fourier components of V(out)
DC component:-0.000532526

Harmonic	Frequency	 Fourier 	Normalized	 Phase  	Normalized
 Number 	  [Hz]   	Component	 Component	[degree]	Phase [deg]
    1   	7.000e+03	3.099e+01	1.000e+00	   -0.60°	    0.00°
    2   	1.400e+04	5.643e-04	1.821e-05	  -26.26°	  -25.66°
    3   	2.100e+04	8.322e-04	2.686e-05	   31.32°	   31.92°
    4   	2.800e+04	3.415e-04	1.102e-05	 -104.79°	 -104.19°
    5   	3.500e+04	8.465e-05	2.732e-06	  163.12°	  163.71°
    6   	4.200e+04	4.186e-04	1.351e-05	  -72.31°	  -71.71°
    7   	4.900e+04	3.516e-04	1.135e-05	   72.66°	   73.26°
    8   	5.600e+04	2.181e-04	7.037e-06	 -106.41°	 -105.81°
    9   	6.300e+04	1.387e-04	4.475e-06	   90.90°	   91.49°
   10   	7.000e+04	1.705e-04	5.502e-06	  -74.96°	  -74.36°
   11   	7.700e+04	1.491e-04	4.812e-06	   77.51°	   78.11°
   12   	8.400e+04	4.736e-05	1.528e-06	 -117.22°	 -116.63°
   13   	9.100e+04	2.081e-05	6.717e-07	   34.33°	   34.93°
   14   	9.800e+04	7.862e-06	2.537e-07	  152.32°	  152.91°
   15   	1.050e+05	5.554e-05	1.792e-06	  -47.70°	  -47.11°
   16   	1.120e+05	3.335e-05	1.076e-06	  136.88°	  137.48°
   17   	1.190e+05	7.142e-05	2.305e-06	  -59.90°	  -59.30°
   18   	1.260e+05	2.754e-05	8.886e-07	  165.46°	  166.06°
   19   	1.330e+05	3.006e-05	9.702e-07	  -55.84°	  -55.24°
   20   	1.400e+05	2.250e-05	7.262e-07	 -155.43°	 -154.84°
   21   	1.470e+05	3.855e-05	1.244e-06	  111.98°	  112.57°
   22   	1.540e+05	4.644e-06	1.498e-07	  -98.90°	  -98.30°
   23   	1.610e+05	8.756e-05	2.825e-06	  114.52°	  115.12°
   24   	1.680e+05	3.731e-05	1.204e-06	   43.89°	   44.49°
   25   	1.750e+05	8.275e-05	2.670e-06	  113.77°	  114.36°
   26   	1.820e+05	8.112e-05	2.618e-06	   52.14°	   52.74°
   27   	1.890e+05	2.561e-05	8.265e-07	  106.39°	  106.98°
   28   	1.960e+05	9.892e-05	3.192e-06	   57.13°	   57.72°
   29   	2.030e+05	4.705e-05	1.518e-06	  -59.13°	  -58.53°
   30   	2.100e+05	7.468e-05	2.410e-06	   64.27°	   64.87°
Total Harmonic Distortion: 0.004092%(0.005447%)

.step freq=8000
N-Period=4
Fourier components of V(out)
DC component:-0.000408579

Harmonic	Frequency	 Fourier 	Normalized	 Phase  	Normalized
 Number 	  [Hz]   	Component	 Component	[degree]	Phase [deg]
    1   	8.000e+03	3.099e+01	1.000e+00	   -0.68°	    0.00°
    2   	1.600e+04	7.163e-04	2.311e-05	  -38.77°	  -38.09°
    3   	2.400e+04	8.374e-04	2.702e-05	   31.89°	   32.58°
    4   	3.200e+04	4.730e-04	1.526e-05	 -104.14°	 -103.46°
    5   	4.000e+04	9.531e-05	3.076e-06	  170.35°	  171.03°
    6   	4.800e+04	5.196e-04	1.677e-05	  -75.61°	  -74.92°
    7   	5.600e+04	3.735e-04	1.205e-05	   74.69°	   75.38°
    8   	6.400e+04	2.839e-04	9.161e-06	 -106.90°	 -106.22°
    9   	7.200e+04	1.295e-04	4.178e-06	   96.31°	   97.00°
   10   	8.000e+04	2.048e-04	6.608e-06	  -78.01°	  -77.32°
   11   	8.800e+04	1.346e-04	4.342e-06	   75.93°	   76.62°
   12   	9.600e+04	5.553e-05	1.792e-06	 -119.17°	 -118.49°
   13   	1.040e+05	3.357e-05	1.083e-06	  -48.18°	  -47.49°
   14   	1.120e+05	1.107e-05	3.571e-07	  143.83°	  144.51°
   15   	1.200e+05	9.817e-05	3.168e-06	  -61.80°	  -61.12°
   16   	1.280e+05	3.920e-05	1.265e-06	  143.16°	  143.85°
   17   	1.360e+05	1.130e-04	3.648e-06	  -70.37°	  -69.68°
   18   	1.440e+05	3.961e-05	1.278e-06	 -174.92°	 -174.23°
   19   	1.520e+05	5.522e-05	1.782e-06	  -82.73°	  -82.04°
   20   	1.600e+05	4.647e-05	1.499e-06	 -141.09°	 -140.40°
   21   	1.680e+05	4.454e-05	1.437e-06	  140.41°	  141.09°
   22   	1.760e+05	2.801e-05	9.038e-07	 -115.59°	 -114.91°
   23   	1.840e+05	1.078e-04	3.478e-06	  121.98°	  122.66°
   24   	1.920e+05	3.006e-05	9.701e-07	   27.19°	   27.88°
   25   	2.000e+05	1.036e-04	3.343e-06	  116.03°	  116.71°
   26   	2.080e+05	8.900e-05	2.872e-06	   45.85°	   46.53°
   27   	2.160e+05	3.287e-05	1.061e-06	  103.15°	  103.83°
   28   	2.240e+05	1.150e-04	3.710e-06	   51.84°	   52.53°
   29   	2.320e+05	5.911e-05	1.907e-06	  -58.19°	  -57.50°
   30   	2.400e+05	8.526e-05	2.751e-06	   59.90°	   60.58°
Total Harmonic Distortion: 0.004685%(0.006887%)

.step freq=9000
N-Period=4
Fourier components of V(out)
DC component:-0.000309172

Harmonic	Frequency	 Fourier 	Normalized	 Phase  	Normalized
 Number 	  [Hz]   	Component	 Component	[degree]	Phase [deg]
    1   	9.000e+03	3.099e+01	1.000e+00	   -0.77°	    0.00°
    2   	1.800e+04	9.016e-04	2.909e-05	  -48.06°	  -47.29°
    3   	2.700e+04	8.285e-04	2.674e-05	   31.37°	   32.14°
    4   	3.600e+04	6.197e-04	2.000e-05	 -104.11°	 -103.34°
    5   	4.500e+04	1.111e-04	3.584e-06	  178.09°	  178.86°
    6   	5.400e+04	6.309e-04	2.036e-05	  -78.66°	  -77.89°
    7   	6.300e+04	3.877e-04	1.251e-05	   76.74°	   77.51°
    8   	7.200e+04	3.569e-04	1.152e-05	 -107.65°	 -106.88°
    9   	8.100e+04	1.123e-04	3.625e-06	  105.43°	  106.20°
   10   	9.000e+04	2.425e-04	7.826e-06	  -80.68°	  -79.91°
   11   	9.900e+04	1.074e-04	3.466e-06	   72.92°	   73.69°
   12   	1.080e+05	6.322e-05	2.040e-06	 -118.95°	 -118.18°
   13   	1.170e+05	7.864e-05	2.538e-06	  -70.82°	  -70.05°
   14   	1.260e+05	1.293e-05	4.172e-07	  133.02°	  133.79°
   15   	1.350e+05	1.516e-04	4.893e-06	  -69.93°	  -69.16°
   16   	1.440e+05	4.570e-05	1.475e-06	  149.67°	  150.44°
   17   	1.530e+05	1.615e-04	5.211e-06	  -77.93°	  -77.16°
   18   	1.620e+05	6.090e-05	1.965e-06	 -162.97°	 -162.20°
   19   	1.710e+05	8.803e-05	2.841e-06	  -97.28°	  -96.51°
   20   	1.800e+05	8.300e-05	2.679e-06	 -137.61°	 -136.84°
   21   	1.890e+05	6.517e-05	2.103e-06	  160.57°	  161.34°
   22   	1.980e+05	6.394e-05	2.063e-06	 -120.88°	 -120.11°
   23   	2.070e+05	1.329e-04	4.289e-06	  127.79°	  128.55°
   24   	2.160e+05	2.200e-05	7.100e-07	  -20.09°	  -19.32°
   25   	2.250e+05	1.248e-04	4.026e-06	  117.39°	  118.16°
   26   	2.340e+05	9.155e-05	2.954e-06	   37.78°	   38.54°
   27   	2.430e+05	3.685e-05	1.189e-06	  100.04°	  100.81°
   28   	2.520e+05	1.285e-04	4.145e-06	   46.48°	   47.25°
   29   	2.610e+05	7.632e-05	2.463e-06	  -61.03°	  -60.26°
   30   	2.700e+05	9.502e-05	3.066e-06	   56.65°	   57.42°
Total Harmonic Distortion: 0.005416%(0.008872%)

.step freq=10000
N-Period=4
Fourier components of V(out)
DC component:-0.000226997

Harmonic	Frequency	 Fourier 	Normalized	 Phase  	Normalized
 Number 	  [Hz]   	Component	 Component	[degree]	Phase [deg]
    1   	1.000e+04	3.099e+01	1.000e+00	   -0.86°	    0.00°
    2   	2.000e+04	1.115e-03	3.597e-05	  -55.21°	  -54.36°
    3   	3.000e+04	8.075e-04	2.606e-05	   29.47°	   30.32°
    4   	4.000e+04	7.809e-04	2.520e-05	 -104.59°	 -103.73°
    5   	5.000e+04	1.300e-04	4.196e-06	 -174.60°	 -173.75°
    6   	6.000e+04	7.507e-04	2.423e-05	  -81.64°	  -80.79°
    7   	7.000e+04	3.935e-04	1.270e-05	   78.95°	   79.80°
    8   	8.000e+04	4.361e-04	1.407e-05	 -108.66°	 -107.80°
    9   	9.000e+04	9.252e-05	2.986e-06	  124.45°	  125.30°
   10   	1.000e+05	2.836e-04	9.152e-06	  -82.79°	  -81.94°
   11   	1.100e+05	6.596e-05	2.129e-06	   68.17°	   69.03°
   12   	1.200e+05	7.048e-05	2.275e-06	 -115.65°	 -114.79°
   13   	1.300e+05	1.382e-04	4.460e-06	  -79.63°	  -78.78°
   14   	1.400e+05	1.251e-05	4.037e-07	  118.81°	  119.67°
   15   	1.500e+05	2.150e-04	6.937e-06	  -75.29°	  -74.44°
   16   	1.600e+05	5.390e-05	1.739e-06	  157.49°	  158.34°
   17   	1.700e+05	2.167e-04	6.994e-06	  -83.16°	  -82.30°
   18   	1.800e+05	9.217e-05	2.974e-06	 -157.41°	 -156.56°
   19   	1.900e+05	1.269e-04	4.094e-06	 -106.03°	 -105.17°
   20   	2.000e+05	1.307e-04	4.218e-06	 -138.02°	 -137.16°
   21   	2.100e+05	9.738e-05	3.143e-06	  170.60°	  171.46°
   22   	2.200e+05	1.102e-04	3.555e-06	 -124.37°	 -123.52°
   23   	2.300e+05	1.657e-04	5.347e-06	  133.13°	  133.98°
   24   	2.400e+05	3.884e-05	1.253e-06	  -74.09°	  -73.23°
   25   	2.500e+05	1.498e-04	4.833e-06	  119.86°	  120.72°
   26   	2.600e+05	9.078e-05	2.929e-06	   24.95°	   25.80°
   27   	2.700e+05	3.997e-05	1.290e-06	  100.11°	  100.96°
   28   	2.800e+05	1.365e-04	4.404e-06	   39.59°	   40.45°
   29   	2.900e+05	9.758e-05	3.149e-06	  -63.22°	  -62.36°
   30   	3.000e+05	9.949e-05	3.211e-06	   54.80°	   55.66°
Total Harmonic Distortion: 0.006296%(0.010798%)

.step freq=11000
N-Period=4
Fourier components of V(out)
DC component:-0.000158393

Harmonic	Frequency	 Fourier 	Normalized	 Phase  	Normalized
 Number 	  [Hz]   	Component	 Component	[degree]	Phase [deg]
    1   	1.100e+04	3.099e+01	1.000e+00	   -0.94°	    0.00°
    2   	2.200e+04	1.356e-03	4.376e-05	  -60.81°	  -59.87°
    3   	3.300e+04	7.701e-04	2.485e-05	   25.96°	   26.90°
    4   	4.400e+04	9.539e-04	3.078e-05	 -105.08°	 -104.13°
    5   	5.500e+04	1.572e-04	5.073e-06	 -168.31°	 -167.37°
    6   	6.600e+04	8.766e-04	2.829e-05	  -84.29°	  -83.35°
    7   	7.700e+04	3.916e-04	1.264e-05	   81.71°	   82.65°
    8   	8.800e+04	5.188e-04	1.674e-05	 -109.97°	 -109.03°
    9   	9.900e+04	8.656e-05	2.793e-06	  157.13°	  158.07°
   10   	1.100e+05	3.265e-04	1.054e-05	  -85.21°	  -84.27°
   11   	1.210e+05	1.623e-05	5.239e-07	   23.91°	   24.85°
   12   	1.320e+05	8.106e-05	2.616e-06	 -112.88°	 -111.94°
   13   	1.430e+05	2.116e-04	6.828e-06	  -84.44°	  -83.50°
   14   	1.540e+05	7.886e-06	2.545e-07	  105.43°	  106.37°
   15   	1.650e+05	2.884e-04	9.307e-06	  -79.75°	  -78.81°
   16   	1.760e+05	6.013e-05	1.940e-06	  168.14°	  169.08°
   17   	1.870e+05	2.772e-04	8.946e-06	  -87.98°	  -87.04°
   18   	1.980e+05	1.277e-04	4.122e-06	 -152.82°	 -151.88°
   19   	2.090e+05	1.673e-04	5.398e-06	 -113.29°	 -112.35°
   20   	2.200e+05	1.860e-04	6.002e-06	 -138.93°	 -137.99°
   21   	2.310e+05	1.355e-04	4.373e-06	  172.10°	  173.05°
   22   	2.420e+05	1.656e-04	5.343e-06	 -129.38°	 -128.44°
   23   	2.530e+05	2.052e-04	6.623e-06	  135.17°	  136.11°
   24   	2.640e+05	6.991e-05	2.256e-06	 -103.50°	 -102.55°
   25   	2.750e+05	1.758e-04	5.672e-06	  122.08°	  123.02°
   26   	2.860e+05	7.936e-05	2.561e-06	   12.04°	   12.99°
   27   	2.970e+05	3.468e-05	1.119e-06	  115.21°	  116.16°
   28   	3.080e+05	1.362e-04	4.396e-06	   32.00°	   32.94°
   29   	3.190e+05	1.310e-04	4.228e-06	  -73.08°	  -72.13°
   30   	3.300e+05	9.821e-05	3.169e-06	   47.26°	   48.20°
Total Harmonic Distortion: 0.007318%(0.012902%)

.step freq=12000
N-Period=4
Fourier components of V(out)
DC component:-0.000100138

Harmonic	Frequency	 Fourier 	Normalized	 Phase  	Normalized
 Number 	  [Hz]   	Component	 Component	[degree]	Phase [deg]
    1   	1.200e+04	3.099e+01	1.000e+00	   -1.03°	    0.00°
    2   	2.400e+04	1.621e-03	5.231e-05	  -65.41°	  -64.39°
    3   	3.600e+04	7.265e-04	2.344e-05	   20.08°	   21.10°
    4   	4.800e+04	1.138e-03	3.674e-05	 -105.80°	 -104.78°
    5   	6.000e+04	1.876e-04	6.053e-06	 -161.94°	 -160.91°
    6   	7.200e+04	1.007e-03	3.250e-05	  -86.83°	  -85.80°
    7   	8.400e+04	3.783e-04	1.221e-05	   85.19°	   86.22°
    8   	9.600e+04	6.038e-04	1.949e-05	 -111.42°	 -110.39°
    9   	1.080e+05	1.211e-04	3.907e-06	 -169.97°	 -168.94°
   10   	1.200e+05	3.711e-04	1.198e-05	  -87.35°	  -86.32°
   11   	1.320e+05	5.882e-05	1.898e-06	  -97.45°	  -96.42°
   12   	1.440e+05	9.493e-05	3.064e-06	 -109.58°	 -108.55°
   13   	1.560e+05	2.932e-04	9.461e-06	  -88.90°	  -87.88°
   14   	1.680e+05	3.183e-06	1.027e-07	  -62.77°	  -61.74°
   15   	1.800e+05	3.699e-04	1.194e-05	  -83.44°	  -82.41°
   16   	1.920e+05	7.067e-05	2.281e-06	 -176.09°	 -175.06°
   17   	2.040e+05	3.462e-04	1.117e-05	  -91.20°	  -90.17°
   18   	2.160e+05	1.716e-04	5.539e-06	 -148.73°	 -147.70°
   19   	2.280e+05	2.113e-04	6.818e-06	 -116.63°	 -115.60°
   20   	2.400e+05	2.480e-04	8.004e-06	 -139.65°	 -138.62°
   21   	2.520e+05	1.709e-04	5.516e-06	  171.62°	  172.65°
   22   	2.640e+05	2.252e-04	7.267e-06	 -133.40°	 -132.37°
   23   	2.760e+05	2.516e-04	8.118e-06	  134.79°	  135.82°
   24   	2.880e+05	1.075e-04	3.469e-06	 -118.70°	 -117.67°
   25   	3.000e+05	2.145e-04	6.921e-06	  123.16°	  124.19°
   26   	3.120e+05	6.264e-05	2.022e-06	   -1.14°	   -0.11°
   27   	3.240e+05	4.596e-05	1.483e-06	  139.50°	  140.52°
   28   	3.360e+05	1.279e-04	4.129e-06	   27.42°	   28.45°
   29   	3.480e+05	1.672e-04	5.396e-06	  -85.39°	  -84.36°
   30   	3.600e+05	8.779e-05	2.833e-06	   44.73°	   45.76°
Total Harmonic Distortion: 0.008486%(0.015002%)

.step freq=13000
N-Period=4
Fourier components of V(out)
DC component:-4.71233e-005

Harmonic	Frequency	 Fourier 	Normalized	 Phase  	Normalized
 Number 	  [Hz]   	Component	 Component	[degree]	Phase [deg]
    1   	1.300e+04	3.099e+01	1.000e+00	   -1.12°	    0.00°
    2   	2.600e+04	1.907e-03	6.155e-05	  -69.08°	  -67.97°
    3   	3.900e+04	6.711e-04	2.166e-05	   11.17°	   12.29°
    4   	5.200e+04	1.332e-03	4.300e-05	 -106.36°	 -105.25°
    5   	6.500e+04	2.294e-04	7.403e-06	 -158.38°	 -157.27°
    6   	7.800e+04	1.145e-03	3.695e-05	  -89.15°	  -88.03°
    7   	9.100e+04	3.638e-04	1.174e-05	   89.95°	   91.07°
    8   	1.040e+05	6.945e-04	2.241e-05	 -113.20°	 -112.08°
    9   	1.170e+05	1.837e-04	5.929e-06	 -153.26°	 -152.14°
   10   	1.300e+05	4.161e-04	1.343e-05	  -90.42°	  -89.31°
   11   	1.430e+05	1.388e-04	4.478e-06	 -105.51°	 -104.39°
   12   	1.560e+05	1.120e-04	3.614e-06	 -110.44°	 -109.33°
   13   	1.690e+05	3.865e-04	1.247e-05	  -93.15°	  -92.04°
   14   	1.820e+05	1.959e-05	6.324e-07	  -86.43°	  -85.31°
   15   	1.950e+05	4.603e-04	1.486e-05	  -87.51°	  -86.40°
   16   	2.080e+05	9.083e-05	2.931e-06	 -157.57°	 -156.46°
   17   	2.210e+05	4.240e-04	1.369e-05	  -94.29°	  -93.17°
   18   	2.340e+05	2.266e-04	7.311e-06	 -143.52°	 -142.40°
   19   	2.470e+05	2.617e-04	8.447e-06	 -117.47°	 -116.36°
   20   	2.600e+05	3.202e-04	1.033e-05	 -139.18°	 -138.07°
   21   	2.730e+05	1.953e-04	6.304e-06	  173.34°	  174.45°
   22   	2.860e+05	2.904e-04	9.370e-06	 -136.25°	 -135.14°
   23   	2.990e+05	2.870e-04	9.264e-06	  133.81°	  134.92°
   24   	3.120e+05	1.446e-04	4.667e-06	 -128.06°	 -126.94°
   25   	3.250e+05	2.542e-04	8.204e-06	  122.53°	  123.64°
   26   	3.380e+05	5.242e-05	1.692e-06	   -8.46°	   -7.35°
   27   	3.510e+05	7.375e-05	2.380e-06	  141.69°	  142.80°
   28   	3.640e+05	1.340e-04	4.323e-06	   25.66°	   26.77°
   29   	3.770e+05	1.817e-04	5.863e-06	  -96.25°	  -95.14°
   30   	3.900e+05	9.068e-05	2.927e-06	   43.94°	   45.05°
Total Harmonic Distortion: 0.009794%(0.019271%)

.step freq=14000
N-Period=4
Fourier components of V(out)
DC component:-8.90663e-007

Harmonic	Frequency	 Fourier 	Normalized	 Phase  	Normalized
 Number 	  [Hz]   	Component	 Component	[degree]	Phase [deg]
    1   	1.400e+04	3.099e+01	1.000e+00	   -1.20°	    0.00°
    2   	2.800e+04	2.214e-03	7.144e-05	  -72.33°	  -71.13°
    3   	4.200e+04	6.348e-04	2.049e-05	   -2.08°	   -0.88°
    4   	5.600e+04	1.537e-03	4.959e-05	 -107.19°	 -105.99°
    5   	7.000e+04	2.730e-04	8.811e-06	 -154.85°	 -153.65°
    6   	8.400e+04	1.285e-03	4.146e-05	  -91.44°	  -90.23°
    7   	9.800e+04	3.458e-04	1.116e-05	   96.07°	   97.27°
    8   	1.120e+05	7.830e-04	2.527e-05	 -115.00°	 -113.80°
    9   	1.260e+05	2.661e-04	8.588e-06	 -146.19°	 -144.99°
   10   	1.400e+05	4.576e-04	1.477e-05	  -93.08°	  -91.88°
   11   	1.540e+05	2.258e-04	7.287e-06	 -110.98°	 -109.78°
   12   	1.680e+05	1.290e-04	4.162e-06	 -112.87°	 -111.66°
   13   	1.820e+05	4.854e-04	1.567e-05	  -97.61°	  -96.41°
   14   	1.960e+05	4.150e-05	1.339e-06	 -104.71°	 -103.51°
   15   	2.100e+05	5.589e-04	1.804e-05	  -92.15°	  -90.95°
   16   	2.240e+05	1.371e-04	4.425e-06	 -148.04°	 -146.84°
   17   	2.380e+05	5.131e-04	1.656e-05	  -98.73°	  -97.53°
   18   	2.520e+05	3.061e-04	9.879e-06	 -141.62°	 -140.42°
   19   	2.660e+05	3.273e-04	1.056e-05	 -120.98°	 -119.78°
   20   	2.800e+05	4.147e-04	1.338e-05	 -139.72°	 -138.52°
   21   	2.940e+05	2.352e-04	7.591e-06	  175.77°	  176.97°
   22   	3.080e+05	3.756e-04	1.212e-05	 -138.25°	 -137.05°
   23   	3.220e+05	3.202e-04	1.033e-05	  134.54°	  135.75°
   24   	3.360e+05	2.023e-04	6.529e-06	 -132.04°	 -130.84°
   25   	3.500e+05	2.753e-04	8.886e-06	  123.07°	  124.27°
   26   	3.640e+05	5.136e-05	1.658e-06	  -43.44°	  -42.23°
   27   	3.780e+05	7.942e-05	2.563e-06	  155.22°	  156.43°
   28   	3.920e+05	1.318e-04	4.254e-06	   15.84°	   17.04°
   29   	4.060e+05	2.286e-04	7.379e-06	 -102.52°	 -101.32°
   30   	4.200e+05	8.527e-05	2.752e-06	   35.08°	   36.28°
Total Harmonic Distortion: 0.011261%(0.021582%)

.step freq=15000
N-Period=4
Fourier components of V(out)
DC component:4.01134e-005

Harmonic	Frequency	 Fourier 	Normalized	 Phase  	Normalized
 Number 	  [Hz]   	Component	 Component	[degree]	Phase [deg]
    1   	1.500e+04	3.098e+01	1.000e+00	   -1.29°	    0.00°
    2   	3.000e+04	2.540e-03	8.199e-05	  -75.12°	  -73.83°
    3   	4.500e+04	6.398e-04	2.065e-05	  -19.59°	  -18.30°
    4   	6.000e+04	1.748e-03	5.643e-05	 -107.93°	 -106.64°
    5   	7.500e+04	3.234e-04	1.044e-05	 -151.67°	 -150.38°
    6   	9.000e+04	1.427e-03	4.605e-05	  -93.43°	  -92.14°
    7   	1.050e+05	3.267e-04	1.054e-05	  103.69°	  104.98°
    8   	1.200e+05	8.687e-04	2.804e-05	 -116.65°	 -115.36°
    9   	1.350e+05	3.552e-04	1.146e-05	 -142.52°	 -141.23°
   10   	1.500e+05	4.947e-04	1.596e-05	  -95.54°	  -94.25°
   11   	1.650e+05	3.127e-04	1.009e-05	 -113.98°	 -112.69°
   12   	1.800e+05	1.432e-04	4.623e-06	 -116.35°	 -115.07°
   13   	1.950e+05	5.801e-04	1.872e-05	 -101.15°	  -99.86°
   14   	2.100e+05	6.513e-05	2.102e-06	 -114.02°	 -112.73°
   15   	2.250e+05	6.507e-04	2.100e-05	  -96.29°	  -95.00°
   16   	2.400e+05	1.895e-04	6.116e-06	 -144.50°	 -143.21°
   17   	2.550e+05	5.949e-04	1.920e-05	 -103.41°	 -102.12°
   18   	2.700e+05	3.892e-04	1.256e-05	 -141.91°	 -140.62°
   19   	2.850e+05	3.918e-04	1.264e-05	 -126.27°	 -124.99°
   20   	3.000e+05	5.107e-04	1.648e-05	 -142.28°	 -140.99°
   21   	3.150e+05	2.896e-04	9.348e-06	  175.64°	  176.93°
   22   	3.300e+05	4.614e-04	1.489e-05	 -143.12°	 -141.83°
   23   	3.450e+05	3.643e-04	1.176e-05	  135.73°	  137.02°
   24   	3.600e+05	2.605e-04	8.407e-06	 -141.19°	 -139.90°
   25   	3.750e+05	3.045e-04	9.827e-06	  124.60°	  125.89°
   26   	3.900e+05	4.718e-05	1.523e-06	  -89.70°	  -88.41°
   27   	4.050e+05	1.036e-04	3.342e-06	  163.59°	  164.88°
   28   	4.200e+05	1.107e-04	3.572e-06	    9.28°	   10.56°
   29   	4.350e+05	2.687e-04	8.672e-06	 -111.97°	 -110.68°
   30   	4.500e+05	5.917e-05	1.910e-06	   30.78°	   32.07°
Total Harmonic Distortion: 0.012838%(0.024172%)

.step freq=16000
N-Period=4
Fourier components of V(out)
DC component:7.51953e-005

Harmonic	Frequency	 Fourier 	Normalized	 Phase  	Normalized
 Number 	  [Hz]   	Component	 Component	[degree]	Phase [deg]
    1   	1.600e+04	3.098e+01	1.000e+00	   -1.38°	    0.00°
    2   	3.200e+04	2.888e-03	9.322e-05	  -77.58°	  -76.20°
    3   	4.800e+04	7.198e-04	2.323e-05	  -38.28°	  -36.91°
    4   	6.400e+04	1.967e-03	6.349e-05	 -108.61°	 -107.23°
    5   	8.000e+04	3.822e-04	1.234e-05	 -147.99°	 -146.61°
    6   	9.600e+04	1.569e-03	5.065e-05	  -95.17°	  -93.80°
    7   	1.120e+05	3.008e-04	9.710e-06	  114.08°	  115.45°
    8   	1.280e+05	9.517e-04	3.072e-05	 -118.20°	 -116.82°
    9   	1.440e+05	4.571e-04	1.475e-05	 -139.86°	 -138.48°
   10   	1.600e+05	5.312e-04	1.714e-05	  -97.97°	  -96.59°
   11   	1.760e+05	4.011e-04	1.295e-05	 -116.33°	 -114.95°
   12   	1.920e+05	1.626e-04	5.247e-06	 -119.68°	 -118.31°
   13   	2.080e+05	6.650e-04	2.146e-05	 -104.06°	 -102.68°
   14   	2.240e+05	9.799e-05	3.163e-06	 -116.77°	 -115.40°
   15   	2.400e+05	7.306e-04	2.358e-05	  -99.46°	  -98.09°
   16   	2.560e+05	2.447e-04	7.899e-06	 -140.40°	 -139.02°
   17   	2.720e+05	6.725e-04	2.170e-05	 -107.00°	 -105.62°
   18   	2.880e+05	4.670e-04	1.507e-05	 -141.39°	 -140.01°
   19   	3.040e+05	4.646e-04	1.499e-05	 -129.84°	 -128.46°
   20   	3.200e+05	5.963e-04	1.925e-05	 -144.36°	 -142.99°
   21   	3.360e+05	3.494e-04	1.128e-05	  177.99°	  179.37°
   22   	3.520e+05	5.395e-04	1.741e-05	 -147.83°	 -146.46°
   23   	3.680e+05	4.031e-04	1.301e-05	  138.06°	  139.44°
   24   	3.840e+05	3.196e-04	1.031e-05	 -149.98°	 -148.60°
   25   	4.000e+05	3.317e-04	1.071e-05	  124.18°	  125.55°
   26   	4.160e+05	6.833e-05	2.205e-06	 -133.66°	 -132.29°
   27   	4.320e+05	1.133e-04	3.656e-06	  157.13°	  158.51°
   28   	4.480e+05	8.607e-05	2.778e-06	   -0.34°	    1.04°
   29   	4.640e+05	2.824e-04	9.115e-06	 -116.74°	 -115.36°
   30   	4.800e+05	4.076e-05	1.315e-06	    3.39°	    4.77°
Total Harmonic Distortion: 0.014504%(0.027567%)

.step freq=17000
N-Period=4
Fourier components of V(out)
DC component:0.000108175

Harmonic	Frequency	 Fourier 	Normalized	 Phase  	Normalized
 Number 	  [Hz]   	Component	 Component	[degree]	Phase [deg]
    1   	1.700e+04	3.098e+01	1.000e+00	   -1.46°	    0.00°
    2   	3.400e+04	3.255e-03	1.051e-04	  -79.72°	  -78.25°
    3   	5.100e+04	8.812e-04	2.844e-05	  -54.72°	  -53.26°
    4   	6.800e+04	2.197e-03	7.092e-05	 -109.23°	 -107.76°
    5   	8.500e+04	4.482e-04	1.447e-05	 -145.78°	 -144.32°
    6   	1.020e+05	1.717e-03	5.541e-05	  -96.97°	  -95.51°
    7   	1.190e+05	2.816e-04	9.089e-06	  126.87°	  128.33°
    8   	1.360e+05	1.031e-03	3.328e-05	 -120.18°	 -118.72°
    9   	1.530e+05	5.675e-04	1.832e-05	 -137.27°	 -135.81°
   10   	1.700e+05	5.581e-04	1.801e-05	 -100.64°	  -99.18°
   11   	1.870e+05	4.993e-04	1.612e-05	 -117.58°	 -116.12°
   12   	2.040e+05	1.838e-04	5.932e-06	 -122.29°	 -120.83°
   13   	2.210e+05	7.507e-04	2.423e-05	 -106.80°	 -105.34°
   14   	2.380e+05	1.497e-04	4.832e-06	 -116.41°	 -114.94°
   15   	2.550e+05	8.012e-04	2.586e-05	 -102.81°	 -101.34°
   16   	2.720e+05	3.234e-04	1.044e-05	 -135.95°	 -134.48°
   17   	2.890e+05	7.409e-04	2.391e-05	 -111.22°	 -109.76°
   18   	3.060e+05	5.567e-04	1.797e-05	 -140.87°	 -139.41°
   19   	3.230e+05	5.425e-04	1.751e-05	 -134.53°	 -133.07°
   20   	3.400e+05	6.756e-04	2.181e-05	 -146.89°	 -145.43°
   21   	3.570e+05	4.239e-04	1.368e-05	  179.88°	  181.34°
   22   	3.740e+05	6.019e-04	1.943e-05	 -153.37°	 -151.91°
   23   	3.910e+05	4.353e-04	1.405e-05	  141.66°	  143.13°
   24   	4.080e+05	3.701e-04	1.195e-05	 -159.44°	 -157.97°
   25   	4.250e+05	3.366e-04	1.086e-05	  124.43°	  125.90°
   26   	4.420e+05	1.105e-04	3.566e-06	 -158.89°	 -157.42°
   27   	4.590e+05	1.080e-04	3.486e-06	  154.96°	  156.42°
   28   	4.760e+05	4.829e-05	1.559e-06	  -32.69°	  -31.22°
   29   	4.930e+05	2.896e-04	9.347e-06	 -121.19°	 -119.73°
   30   	5.100e+05	4.441e-05	1.433e-06	  -84.96°	  -83.49°
Total Harmonic Distortion: 0.016280%(0.030200%)

.step freq=18000
N-Period=4
Fourier components of V(out)
DC component:0.000134418

Harmonic	Frequency	 Fourier 	Normalized	 Phase  	Normalized
 Number 	  [Hz]   	Component	 Component	[degree]	Phase [deg]
    1   	1.800e+04	3.098e+01	1.000e+00	   -1.55°	    0.00°
    2   	3.600e+04	3.640e-03	1.175e-04	  -81.75°	  -80.20°
    3   	5.400e+04	1.132e-03	3.653e-05	  -66.87°	  -65.32°
    4   	7.200e+04	2.430e-03	7.844e-05	 -109.95°	 -108.40°
    5   	9.000e+04	5.289e-04	1.707e-05	 -143.36°	 -141.80°
    6   	1.080e+05	1.858e-03	5.999e-05	  -98.55°	  -97.00°
    7   	1.260e+05	2.806e-04	9.057e-06	  144.63°	  146.19°
    8   	1.440e+05	1.106e-03	3.570e-05	 -121.95°	 -120.40°
    9   	1.620e+05	6.884e-04	2.222e-05	 -135.96°	 -134.41°
   10   	1.800e+05	5.892e-04	1.902e-05	 -103.78°	 -102.23°
   11   	1.980e+05	5.918e-04	1.910e-05	 -118.65°	 -117.10°
   12   	2.160e+05	2.200e-04	7.101e-06	 -127.18°	 -125.63°
   13   	2.340e+05	8.249e-04	2.663e-05	 -108.89°	 -107.34°
   14   	2.520e+05	2.156e-04	6.959e-06	 -118.86°	 -117.31°
   15   	2.700e+05	8.615e-04	2.781e-05	 -105.91°	 -104.36°
   16   	2.880e+05	4.096e-04	1.322e-05	 -132.69°	 -131.14°
   17   	3.060e+05	8.075e-04	2.606e-05	 -115.92°	 -114.37°
   18   	3.240e+05	6.398e-04	2.065e-05	 -139.76°	 -138.21°
   19   	3.420e+05	6.366e-04	2.055e-05	 -139.55°	 -138.00°
   20   	3.600e+05	7.419e-04	2.395e-05	 -149.01°	 -147.46°
   21   	3.780e+05	5.177e-04	1.671e-05	 -177.94°	 -176.39°
   22   	3.960e+05	6.594e-04	2.128e-05	 -159.44°	 -157.88°
   23   	4.140e+05	4.670e-04	1.507e-05	  146.65°	  148.20°
   24   	4.320e+05	4.332e-04	1.398e-05	 -170.10°	 -168.55°
   25   	4.500e+05	3.309e-04	1.068e-05	  124.27°	  125.82°
   26   	4.680e+05	1.787e-04	5.769e-06	 -176.41°	 -174.86°
   27   	4.860e+05	9.026e-05	2.913e-06	  143.55°	  145.11°
   28   	5.040e+05	5.270e-05	1.701e-06	 -116.84°	 -115.29°
   29   	5.220e+05	2.734e-04	8.826e-06	 -124.32°	 -122.77°
   30   	5.400e+05	1.084e-04	3.498e-06	 -112.16°	 -110.61°
Total Harmonic Distortion: 0.018171%(0.033608%)

.step freq=19000
N-Period=4
Fourier components of V(out)
DC component:0.000156861

Harmonic	Frequency	 Fourier 	Normalized	 Phase  	Normalized
 Number 	  [Hz]   	Component	 Component	[degree]	Phase [deg]
    1   	1.900e+04	3.098e+01	1.000e+00	   -1.64°	    0.00°
    2   	3.800e+04	4.041e-03	1.304e-04	  -83.67°	  -82.03°
    3   	5.700e+04	1.460e-03	4.714e-05	  -75.49°	  -73.85°
    4   	7.600e+04	2.670e-03	8.619e-05	 -110.76°	 -109.12°
    5   	9.500e+04	6.204e-04	2.003e-05	 -141.62°	 -139.98°
    6   	1.140e+05	2.000e-03	6.455e-05	 -100.08°	  -98.44°
    7   	1.330e+05	3.119e-04	1.007e-05	  162.32°	  163.96°
    8   	1.520e+05	1.177e-03	3.799e-05	 -123.76°	 -122.12°
    9   	1.710e+05	8.137e-04	2.627e-05	 -135.07°	 -133.43°
   10   	1.900e+05	6.173e-04	1.993e-05	 -107.22°	 -105.58°
   11   	2.090e+05	6.843e-04	2.209e-05	 -119.10°	 -117.47°
   12   	2.280e+05	2.628e-04	8.481e-06	 -131.94°	 -130.30°
   13   	2.470e+05	8.966e-04	2.894e-05	 -110.50°	 -108.86°
   14   	2.660e+05	2.956e-04	9.541e-06	 -120.26°	 -118.62°
   15   	2.850e+05	9.163e-04	2.958e-05	 -109.09°	 -107.45°
   16   	3.040e+05	5.138e-04	1.658e-05	 -129.78°	 -128.15°
   17   	3.230e+05	8.715e-04	2.813e-05	 -121.25°	 -119.61°
   18   	3.420e+05	7.325e-04	2.364e-05	 -138.64°	 -137.00°
   19   	3.610e+05	7.386e-04	2.384e-05	 -144.97°	 -143.33°
   20   	3.800e+05	8.050e-04	2.598e-05	 -151.43°	 -149.79°
   21   	3.990e+05	6.225e-04	2.009e-05	 -176.90°	 -175.26°
   22   	4.180e+05	7.108e-04	2.294e-05	 -166.23°	 -164.59°
   23   	4.370e+05	5.008e-04	1.617e-05	  151.83°	  153.47°
   24   	4.560e+05	4.965e-04	1.603e-05	  179.42°	  181.06°
   25   	4.750e+05	3.135e-04	1.012e-05	  125.06°	  126.70°
   26   	4.940e+05	2.505e-04	8.087e-06	  173.23°	  174.87°
   27   	5.130e+05	6.754e-05	2.180e-06	  131.79°	  133.43°
   28   	5.320e+05	1.168e-04	3.770e-06	 -145.30°	 -143.66°
   29   	5.510e+05	2.605e-04	8.408e-06	 -127.33°	 -125.69°
   30   	5.700e+05	1.882e-04	6.075e-06	 -123.83°	 -122.19°
Total Harmonic Distortion: 0.020209%(0.036213%)

.step freq=20000
N-Period=4
Fourier components of V(out)
DC component:0.000183859

Harmonic	Frequency	 Fourier 	Normalized	 Phase  	Normalized
 Number 	  [Hz]   	Component	 Component	[degree]	Phase [deg]
    1   	2.000e+04	3.098e+01	1.000e+00	   -1.73°	    0.00°
    2   	4.000e+04	4.454e-03	1.438e-04	  -85.28°	  -83.55°
    3   	6.000e+04	1.853e-03	5.980e-05	  -81.84°	  -80.11°
    4   	8.000e+04	2.923e-03	9.434e-05	 -111.36°	 -109.64°
    5   	1.000e+05	7.131e-04	2.302e-05	 -140.71°	 -138.98°
    6   	1.200e+05	2.150e-03	6.941e-05	 -101.69°	  -99.96°
    7   	1.400e+05	3.637e-04	1.174e-05	  177.29°	  179.02°
    8   	1.600e+05	1.246e-03	4.021e-05	 -126.16°	 -124.43°
    9   	1.800e+05	9.537e-04	3.079e-05	 -133.99°	 -132.26°
   10   	2.000e+05	6.359e-04	2.053e-05	 -111.25°	 -109.53°
   11   	2.200e+05	7.831e-04	2.528e-05	 -120.02°	 -118.29°
   12   	2.400e+05	3.124e-04	1.008e-05	 -135.38°	 -133.65°
   13   	2.600e+05	9.530e-04	3.076e-05	 -112.54°	 -110.82°
   14   	2.800e+05	3.975e-04	1.283e-05	 -121.32°	 -119.60°
   15   	3.000e+05	9.497e-04	3.066e-05	 -112.22°	 -110.49°
   16   	3.200e+05	6.351e-04	2.050e-05	 -128.33°	 -126.60°
   17   	3.400e+05	9.328e-04	3.011e-05	 -126.26°	 -124.54°
   18   	3.600e+05	8.217e-04	2.653e-05	 -138.29°	 -136.56°
   19   	3.800e+05	8.576e-04	2.768e-05	 -149.61°	 -147.88°
   20   	4.000e+05	8.525e-04	2.752e-05	 -154.06°	 -152.33°
   21   	4.200e+05	7.448e-04	2.404e-05	 -176.39°	 -174.67°
   22   	4.400e+05	7.570e-04	2.443e-05	 -172.68°	 -170.96°
   23   	4.600e+05	5.463e-04	1.763e-05	  156.15°	  157.87°
   24   	4.800e+05	5.696e-04	1.839e-05	  170.75°	  172.48°
   25   	5.000e+05	2.960e-04	9.555e-06	  125.71°	  127.44°
   26   	5.200e+05	3.297e-04	1.064e-05	  165.83°	  167.55°
   27   	5.400e+05	4.517e-05	1.458e-06	  115.09°	  116.82°
   28   	5.600e+05	1.829e-04	5.904e-06	 -156.89°	 -155.16°
   29   	5.800e+05	2.551e-04	8.233e-06	 -130.38°	 -128.66°
   30   	6.000e+05	2.625e-04	8.473e-06	 -131.50°	 -129.77°
Total Harmonic Distortion: 0.022397%(0.038928%)

.step freq=21000
N-Period=4
Fourier components of V(out)
DC component:0.000199916

Harmonic	Frequency	 Fourier 	Normalized	 Phase  	Normalized
 Number 	  [Hz]   	Component	 Component	[degree]	Phase [deg]
    1   	2.100e+04	3.098e+01	1.000e+00	   -1.82°	    0.00°
    2   	4.200e+04	4.888e-03	1.578e-04	  -86.91°	  -85.10°
    3   	6.300e+04	2.314e-03	7.469e-05	  -86.45°	  -84.64°
    4   	8.400e+04	3.175e-03	1.025e-04	 -112.09°	 -110.27°
    5   	1.050e+05	8.253e-04	2.664e-05	 -139.93°	 -138.11°
    6   	1.260e+05	2.286e-03	7.380e-05	 -103.08°	 -101.26°
    7   	1.470e+05	4.550e-04	1.469e-05	 -170.96°	 -169.14°
    8   	1.680e+05	1.300e-03	4.197e-05	 -128.39°	 -126.57°
    9   	1.890e+05	1.102e-03	3.556e-05	 -133.56°	 -131.74°
   10   	2.100e+05	6.550e-04	2.114e-05	 -115.59°	 -113.78°
   11   	2.310e+05	8.734e-04	2.819e-05	 -120.62°	 -118.80°
   12   	2.520e+05	3.766e-04	1.216e-05	 -139.45°	 -137.63°
   13   	2.730e+05	9.951e-04	3.212e-05	 -113.93°	 -112.11°
   14   	2.940e+05	5.125e-04	1.654e-05	 -123.14°	 -121.33°
   15   	3.150e+05	9.714e-04	3.136e-05	 -115.10°	 -113.28°
   16   	3.360e+05	7.650e-04	2.469e-05	 -127.56°	 -125.74°
   17   	3.570e+05	9.923e-04	3.203e-05	 -131.22°	 -129.40°
   18   	3.780e+05	9.120e-04	2.944e-05	 -138.10°	 -136.29°
   19   	3.990e+05	9.832e-04	3.174e-05	 -153.67°	 -151.85°
   20   	4.200e+05	8.978e-04	2.898e-05	 -156.88°	 -155.07°
   21   	4.410e+05	8.756e-04	2.826e-05	 -176.37°	 -174.55°
   22   	4.620e+05	8.043e-04	2.596e-05	 -179.16°	 -177.35°
   23   	4.830e+05	6.099e-04	1.969e-05	  159.37°	  161.18°
   24   	5.040e+05	6.398e-04	2.065e-05	  163.08°	  164.90°
   25   	5.250e+05	3.000e-04	9.684e-06	  126.77°	  128.59°
   26   	5.460e+05	3.959e-04	1.278e-05	  159.68°	  161.50°
   27   	5.670e+05	4.146e-05	1.338e-06	   89.33°	   91.14°
   28   	5.880e+05	2.367e-04	7.641e-06	 -164.44°	 -162.63°
   29   	6.090e+05	2.506e-04	8.091e-06	 -130.98°	 -129.17°
   30   	6.300e+05	3.227e-04	1.042e-05	 -138.98°	 -137.16°
Total Harmonic Distortion: 0.024735%(0.042308%)

.step freq=22000
N-Period=4
Fourier components of V(out)
DC component:0.00021038

Harmonic	Frequency	 Fourier 	Normalized	 Phase  	Normalized
 Number 	  [Hz]   	Component	 Component	[degree]	Phase [deg]
    1   	2.200e+04	3.098e+01	1.000e+00	   -1.90°	    0.00°
    2   	4.400e+04	5.336e-03	1.722e-04	  -88.55°	  -86.64°
    3   	6.600e+04	2.849e-03	9.198e-05	  -89.80°	  -87.90°
    4   	8.800e+04	3.427e-03	1.106e-04	 -112.92°	 -111.01°
    5   	1.100e+05	9.533e-04	3.077e-05	 -139.20°	 -137.30°
    6   	1.320e+05	2.418e-03	7.805e-05	 -104.31°	 -102.40°
    7   	1.540e+05	5.724e-04	1.848e-05	 -163.60°	 -161.69°
    8   	1.760e+05	1.355e-03	4.373e-05	 -130.40°	 -128.50°
    9   	1.980e+05	1.246e-03	4.021e-05	 -133.52°	 -131.61°
   10   	2.200e+05	6.827e-04	2.204e-05	 -120.36°	 -118.45°
   11   	2.420e+05	9.559e-04	3.086e-05	 -120.71°	 -118.81°
   12   	2.640e+05	4.505e-04	1.454e-05	 -143.23°	 -141.33°
   13   	2.860e+05	1.037e-03	3.349e-05	 -115.05°	 -113.14°
   14   	3.080e+05	6.310e-04	2.037e-05	 -124.49°	 -122.59°
   15   	3.300e+05	9.978e-04	3.221e-05	 -118.44°	 -116.53°
   16   	3.520e+05	8.969e-04	2.895e-05	 -127.06°	 -125.15°
   17   	3.740e+05	1.060e-03	3.421e-05	 -136.41°	 -134.50°
   18   	3.960e+05	1.004e-03	3.241e-05	 -138.57°	 -136.66°
   19   	4.180e+05	1.106e-03	3.572e-05	 -157.43°	 -155.52°
   20   	4.400e+05	9.498e-04	3.066e-05	 -160.33°	 -158.42°
   21   	4.620e+05	9.925e-04	3.204e-05	 -177.29°	 -175.39°
   22   	4.840e+05	8.596e-04	2.775e-05	  174.87°	  176.77°
   23   	5.060e+05	6.701e-04	2.163e-05	  160.07°	  161.98°
   24   	5.280e+05	7.002e-04	2.260e-05	  157.25°	  159.16°
   25   	5.500e+05	3.145e-04	1.015e-05	  127.03°	  128.93°
   26   	5.720e+05	4.386e-04	1.416e-05	  155.31°	  157.22°
   27   	5.940e+05	3.572e-05	1.153e-06	   93.93°	   95.83°
   28   	6.160e+05	2.702e-04	8.722e-06	 -169.71°	 -167.80°
   29   	6.380e+05	2.792e-04	9.013e-06	 -133.53°	 -131.62°
   30   	6.600e+05	3.641e-04	1.176e-05	 -147.06°	 -145.15°
Total Harmonic Distortion: 0.027231%(0.045281%)

.step freq=23000
N-Period=4
Fourier components of V(out)
DC component:0.000221311

Harmonic	Frequency	 Fourier 	Normalized	 Phase  	Normalized
 Number 	  [Hz]   	Component	 Component	[degree]	Phase [deg]
    1   	2.300e+04	3.098e+01	1.000e+00	   -1.99°	    0.00°
    2   	4.600e+04	5.792e-03	1.870e-04	  -90.15°	  -88.16°
    3   	6.900e+04	3.455e-03	1.115e-04	  -92.37°	  -90.37°
    4   	9.200e+04	3.686e-03	1.190e-04	 -113.85°	 -111.86°
    5   	1.150e+05	1.085e-03	3.501e-05	 -138.86°	 -136.87°
    6   	1.380e+05	2.550e-03	8.231e-05	 -105.57°	 -103.57°
    7   	1.610e+05	7.013e-04	2.264e-05	 -159.37°	 -157.38°
    8   	1.840e+05	1.406e-03	4.538e-05	 -132.34°	 -130.35°
    9   	2.070e+05	1.389e-03	4.486e-05	 -133.93°	 -131.94°
   10   	2.300e+05	7.113e-04	2.296e-05	 -124.67°	 -122.67°
   11   	2.530e+05	1.034e-03	3.338e-05	 -121.29°	 -119.30°
   12   	2.760e+05	5.265e-04	1.700e-05	 -145.78°	 -143.79°
   13   	2.990e+05	1.074e-03	3.467e-05	 -116.43°	 -114.44°
   14   	3.220e+05	7.518e-04	2.427e-05	 -125.79°	 -123.80°
   15   	3.450e+05	1.025e-03	3.308e-05	 -121.69°	 -119.69°
   16   	3.680e+05	1.025e-03	3.308e-05	 -127.68°	 -125.68°
   17   	3.910e+05	1.133e-03	3.658e-05	 -140.64°	 -138.65°
   18   	4.140e+05	1.092e-03	3.525e-05	 -140.42°	 -138.43°
   19   	4.370e+05	1.225e-03	3.954e-05	 -160.26°	 -158.26°
   20   	4.600e+05	1.009e-03	3.256e-05	 -164.44°	 -162.45°
   21   	4.830e+05	1.100e-03	3.551e-05	 -178.86°	 -176.86°
   22   	5.060e+05	9.186e-04	2.966e-05	  170.02°	  172.02°
   23   	5.290e+05	7.392e-04	2.387e-05	  158.13°	  160.12°
   24   	5.520e+05	7.435e-04	2.400e-05	  153.47°	  155.46°
   25   	5.750e+05	3.582e-04	1.156e-05	  125.13°	  127.13°
   26   	5.980e+05	4.588e-04	1.481e-05	  152.26°	  154.26°
   27   	6.210e+05	4.354e-05	1.406e-06	  117.76°	  119.76°
   28   	6.440e+05	2.857e-04	9.224e-06	 -175.44°	 -173.45°
   29   	6.670e+05	3.278e-04	1.058e-05	 -135.88°	 -133.89°
   30   	6.900e+05	3.867e-04	1.248e-05	 -156.57°	 -154.58°
Total Harmonic Distortion: 0.029876%(0.048293%)

.step freq=24000
N-Period=4
Fourier components of V(out)
DC component:0.000235691

Harmonic	Frequency	 Fourier 	Normalized	 Phase  	Normalized
 Number 	  [Hz]   	Component	 Component	[degree]	Phase [deg]
    1   	2.400e+04	3.097e+01	1.000e+00	   -2.08°	    0.00°
    2   	4.800e+04	6.253e-03	2.019e-04	  -91.61°	  -89.52°
    3   	7.200e+04	4.132e-03	1.334e-04	  -94.50°	  -92.41°
    4   	9.600e+04	3.947e-03	1.274e-04	 -114.72°	 -112.64°
    5   	1.200e+05	1.222e-03	3.945e-05	 -138.54°	 -136.45°
    6   	1.440e+05	2.680e-03	8.652e-05	 -106.97°	 -104.89°
    7   	1.680e+05	8.348e-04	2.695e-05	 -155.89°	 -153.81°
    8   	1.920e+05	1.459e-03	4.711e-05	 -134.91°	 -132.82°
    9   	2.160e+05	1.533e-03	4.949e-05	 -134.23°	 -132.15°
   10   	2.400e+05	7.483e-04	2.416e-05	 -129.76°	 -127.67°
   11   	2.640e+05	1.097e-03	3.541e-05	 -122.26°	 -120.18°
   12   	2.880e+05	6.146e-04	1.984e-05	 -147.65°	 -145.57°
   13   	3.120e+05	1.086e-03	3.505e-05	 -118.35°	 -116.27°
   14   	3.360e+05	8.782e-04	2.835e-05	 -126.66°	 -124.57°
   15   	3.600e+05	1.041e-03	3.359e-05	 -125.24°	 -123.16°
   16   	3.840e+05	1.142e-03	3.688e-05	 -128.33°	 -126.25°
   17   	4.080e+05	1.213e-03	3.918e-05	 -144.29°	 -142.21°
   18   	4.320e+05	1.167e-03	3.767e-05	 -142.64°	 -140.55°
   19   	4.560e+05	1.345e-03	4.343e-05	 -162.37°	 -160.28°
   20   	4.800e+05	1.075e-03	3.470e-05	 -168.63°	 -166.55°
   21   	5.040e+05	1.201e-03	3.879e-05	  179.24°	  181.32°
   22   	5.280e+05	9.888e-04	3.192e-05	  166.24°	  168.32°
   23   	5.520e+05	8.174e-04	2.639e-05	  154.37°	  156.45°
   24   	5.760e+05	7.803e-04	2.519e-05	  150.74°	  152.82°
   25   	6.000e+05	4.305e-04	1.390e-05	  121.69°	  123.77°
   26   	6.240e+05	4.597e-04	1.484e-05	  148.54°	  150.62°
   27   	6.480e+05	7.307e-05	2.359e-06	  130.68°	  132.76°
   28   	6.720e+05	2.734e-04	8.828e-06	  177.23°	  179.31°
   29   	6.960e+05	3.882e-04	1.253e-05	 -137.65°	 -135.57°
   30   	7.200e+05	3.886e-04	1.255e-05	 -166.61°	 -164.53°
Total Harmonic Distortion: 0.032664%(0.052001%)

.step freq=25000
N-Period=4
Fourier components of V(out)
DC component:0.000245228

Harmonic	Frequency	 Fourier 	Normalized	 Phase  	Normalized
 Number 	  [Hz]   	Component	 Component	[degree]	Phase [deg]
    1   	2.500e+04	3.097e+01	1.000e+00	   -2.17°	    0.00°
    2   	5.000e+04	6.740e-03	2.176e-04	  -92.85°	  -90.68°
    3   	7.500e+04	4.868e-03	1.572e-04	  -96.56°	  -94.39°
    4   	1.000e+05	4.225e-03	1.364e-04	 -115.41°	 -113.24°
    5   	1.250e+05	1.363e-03	4.401e-05	 -138.93°	 -136.76°
    6   	1.500e+05	2.798e-03	9.032e-05	 -108.54°	 -106.36°
    7   	1.750e+05	9.854e-04	3.181e-05	 -152.67°	 -150.49°
    8   	2.000e+05	1.476e-03	4.767e-05	 -138.31°	 -136.14°
    9   	2.250e+05	1.702e-03	5.495e-05	 -134.49°	 -132.32°
   10   	2.500e+05	7.555e-04	2.439e-05	 -134.29°	 -132.11°
   11   	2.750e+05	1.159e-03	3.742e-05	 -123.63°	 -121.46°
   12   	3.000e+05	7.023e-04	2.267e-05	 -148.19°	 -146.02°
   13   	3.250e+05	1.082e-03	3.495e-05	 -119.72°	 -117.55°
   14   	3.500e+05	1.018e-03	3.286e-05	 -128.24°	 -126.07°
   15   	3.750e+05	1.063e-03	3.433e-05	 -127.43°	 -125.25°
   16   	4.000e+05	1.250e-03	4.035e-05	 -130.48°	 -128.31°
   17   	4.250e+05	1.312e-03	4.237e-05	 -146.80°	 -144.63°
   18   	4.500e+05	1.232e-03	3.979e-05	 -146.08°	 -143.91°
   19   	4.750e+05	1.461e-03	4.718e-05	 -164.61°	 -162.44°
   20   	5.000e+05	1.157e-03	3.737e-05	 -172.89°	 -170.72°
   21   	5.250e+05	1.270e-03	4.101e-05	  175.89°	  178.06°
   22   	5.500e+05	1.078e-03	3.482e-05	  163.32°	  165.49°
   23   	5.750e+05	8.678e-04	2.802e-05	  148.62°	  150.80°
   24   	6.000e+05	8.177e-04	2.640e-05	  148.22°	  150.39°
   25   	6.250e+05	4.921e-04	1.589e-05	  117.80°	  119.97°
   26   	6.500e+05	4.411e-04	1.424e-05	  144.26°	  146.43°
   27   	6.750e+05	1.151e-04	3.717e-06	  139.63°	  141.81°
   28   	7.000e+05	2.531e-04	8.172e-06	  174.11°	  176.28°
   29   	7.250e+05	4.388e-04	1.417e-05	 -142.51°	 -140.34°
   30   	7.500e+05	4.141e-04	1.337e-05	 -173.62°	 -171.45°
Total Harmonic Distortion: 0.035632%(0.055196%)

.step freq=26000
N-Period=4
Fourier components of V(out)
DC component:0.000239989

Harmonic	Frequency	 Fourier 	Normalized	 Phase  	Normalized
 Number 	  [Hz]   	Component	 Component	[degree]	Phase [deg]
    1   	2.600e+04	3.097e+01	1.000e+00	   -2.26°	    0.00°
    2   	5.200e+04	7.242e-03	2.338e-04	  -94.22°	  -91.95°
    3   	7.800e+04	5.688e-03	1.836e-04	  -98.07°	  -95.81°
    4   	1.040e+05	4.489e-03	1.449e-04	 -116.15°	 -113.89°
    5   	1.300e+05	1.528e-03	4.934e-05	 -139.22°	 -136.96°
    6   	1.560e+05	2.915e-03	9.411e-05	 -109.49°	 -107.23°
    7   	1.820e+05	1.147e-03	3.704e-05	 -151.53°	 -149.27°
    8   	2.080e+05	1.521e-03	4.912e-05	 -140.62°	 -138.36°
    9   	2.340e+05	1.843e-03	5.950e-05	 -135.13°	 -132.87°
   10   	2.600e+05	8.068e-04	2.605e-05	 -139.19°	 -136.92°
   11   	2.860e+05	1.206e-03	3.895e-05	 -124.73°	 -122.47°
   12   	3.120e+05	7.961e-04	2.570e-05	 -149.61°	 -147.35°
   13   	3.380e+05	1.083e-03	3.497e-05	 -122.38°	 -120.12°
   14   	3.640e+05	1.134e-03	3.661e-05	 -128.71°	 -126.45°
   15   	3.900e+05	1.084e-03	3.500e-05	 -131.42°	 -129.16°
   16   	4.160e+05	1.343e-03	4.335e-05	 -131.64°	 -129.38°
   17   	4.420e+05	1.394e-03	4.501e-05	 -149.16°	 -146.89°
   18   	4.680e+05	1.298e-03	4.190e-05	 -149.76°	 -147.50°
   19   	4.940e+05	1.555e-03	5.020e-05	 -165.59°	 -163.33°
   20   	5.200e+05	1.244e-03	4.016e-05	 -177.37°	 -175.10°
   21   	5.460e+05	1.339e-03	4.325e-05	  173.55°	  175.81°
   22   	5.720e+05	1.151e-03	3.715e-05	  161.06°	  163.32°
   23   	5.980e+05	9.537e-04	3.079e-05	  143.18°	  145.45°
   24   	6.240e+05	8.325e-04	2.688e-05	  147.22°	  149.48°
   25   	6.500e+05	5.857e-04	1.891e-05	  113.69°	  115.95°
   26   	6.760e+05	4.252e-04	1.373e-05	  140.36°	  142.62°
   27   	7.020e+05	1.505e-04	4.859e-06	  139.31°	  141.57°
   28   	7.280e+05	2.291e-04	7.397e-06	  164.16°	  166.42°
   29   	7.540e+05	4.949e-04	1.598e-05	 -144.66°	 -142.40°
   30   	7.800e+05	4.136e-04	1.335e-05	  178.70°	  180.97°
Total Harmonic Distortion: 0.038786%(0.059092%)

.step freq=27000
N-Period=4
Fourier components of V(out)
DC component:0.000238578

Harmonic	Frequency	 Fourier 	Normalized	 Phase  	Normalized
 Number 	  [Hz]   	Component	 Component	[degree]	Phase [deg]
    1   	2.700e+04	3.097e+01	1.000e+00	   -2.35°	    0.00°
    2   	5.400e+04	7.755e-03	2.504e-04	  -95.46°	  -93.10°
    3   	8.100e+04	6.587e-03	2.127e-04	  -99.52°	  -97.17°
    4   	1.080e+05	4.774e-03	1.542e-04	 -116.96°	 -114.60°
    5   	1.350e+05	1.685e-03	5.442e-05	 -139.64°	 -137.29°
    6   	1.620e+05	3.031e-03	9.786e-05	 -111.07°	 -108.72°
    7   	1.890e+05	1.300e-03	4.197e-05	 -150.14°	 -147.79°
    8   	2.160e+05	1.556e-03	5.024e-05	 -144.20°	 -141.84°
    9   	2.430e+05	1.979e-03	6.390e-05	 -135.50°	 -133.15°
   10   	2.700e+05	8.469e-04	2.735e-05	 -144.04°	 -141.69°
   11   	2.970e+05	1.235e-03	3.987e-05	 -125.47°	 -123.11°
   12   	3.240e+05	8.919e-04	2.880e-05	 -150.32°	 -147.97°
   13   	3.510e+05	1.079e-03	3.484e-05	 -123.75°	 -121.40°
   14   	3.780e+05	1.245e-03	4.021e-05	 -129.74°	 -127.39°
   15   	4.050e+05	1.140e-03	3.682e-05	 -133.75°	 -131.40°
   16   	4.320e+05	1.408e-03	4.546e-05	 -133.65°	 -131.30°
   17   	4.590e+05	1.517e-03	4.897e-05	 -150.77°	 -148.42°
   18   	4.860e+05	1.354e-03	4.371e-05	 -154.10°	 -151.75°
   19   	5.130e+05	1.650e-03	5.327e-05	 -167.14°	 -164.78°
   20   	5.400e+05	1.352e-03	4.365e-05	  178.28°	  180.64°
   21   	5.670e+05	1.377e-03	4.446e-05	  169.90°	  172.25°
   22   	5.940e+05	1.240e-03	4.003e-05	  158.53°	  160.88°
   23   	6.210e+05	1.014e-03	3.273e-05	  137.06°	  139.42°
   24   	6.480e+05	8.402e-04	2.713e-05	  144.70°	  147.06°
   25   	6.750e+05	6.581e-04	2.125e-05	  110.12°	  112.47°
   26   	7.020e+05	3.855e-04	1.245e-05	  135.50°	  137.85°
   27   	7.290e+05	1.826e-04	5.895e-06	  138.46°	  140.81°
   28   	7.560e+05	2.120e-04	6.846e-06	  162.85°	  165.21°
   29   	7.830e+05	5.273e-04	1.703e-05	 -147.95°	 -145.59°
   30   	8.100e+05	4.456e-04	1.439e-05	  175.36°	  177.71°
Total Harmonic Distortion: 0.042148%(0.062814%)

.step freq=28000
N-Period=4
Fourier components of V(out)
DC component:0.000224474

Harmonic	Frequency	 Fourier 	Normalized	 Phase  	Normalized
 Number 	  [Hz]   	Component	 Component	[degree]	Phase [deg]
    1   	2.800e+04	3.097e+01	1.000e+00	   -2.44°	    0.00°
    2   	5.600e+04	8.272e-03	2.671e-04	  -96.82°	  -94.37°
    3   	8.400e+04	7.589e-03	2.451e-04	 -100.60°	  -98.16°
    4   	1.120e+05	5.027e-03	1.623e-04	 -117.80°	 -115.35°
    5   	1.400e+05	1.880e-03	6.072e-05	 -139.81°	 -137.36°
    6   	1.680e+05	3.130e-03	1.011e-04	 -112.06°	 -109.62°
    7   	1.960e+05	1.468e-03	4.742e-05	 -149.58°	 -147.14°
    8   	2.240e+05	1.603e-03	5.177e-05	 -147.27°	 -144.83°
    9   	2.520e+05	2.107e-03	6.804e-05	 -135.71°	 -133.27°
   10   	2.800e+05	9.017e-04	2.912e-05	 -149.81°	 -147.37°
   11   	3.080e+05	1.282e-03	4.140e-05	 -126.19°	 -123.75°
   12   	3.360e+05	9.558e-04	3.086e-05	 -151.58°	 -149.14°
   13   	3.640e+05	1.097e-03	3.543e-05	 -127.46°	 -125.02°
   14   	3.920e+05	1.325e-03	4.279e-05	 -129.14°	 -126.70°
   15   	4.200e+05	1.195e-03	3.860e-05	 -137.99°	 -135.55°
   16   	4.480e+05	1.460e-03	4.715e-05	 -134.92°	 -132.48°
   17   	4.760e+05	1.620e-03	5.231e-05	 -152.30°	 -149.86°
   18   	5.040e+05	1.404e-03	4.533e-05	 -158.64°	 -156.19°
   19   	5.320e+05	1.732e-03	5.592e-05	 -168.18°	 -165.73°
   20   	5.600e+05	1.445e-03	4.665e-05	  174.56°	  177.01°
   21   	5.880e+05	1.420e-03	4.587e-05	  165.83°	  168.28°
   22   	6.160e+05	1.312e-03	4.236e-05	  157.59°	  160.03°
   23   	6.440e+05	1.086e-03	3.505e-05	  129.91°	  132.35°
   24   	6.720e+05	8.692e-04	2.807e-05	  144.19°	  146.63°
   25   	7.000e+05	7.044e-04	2.275e-05	  104.15°	  106.60°
   26   	7.280e+05	4.036e-04	1.303e-05	  130.03°	  132.48°
   27   	7.560e+05	1.649e-04	5.324e-06	  140.89°	  143.34°
   28   	7.840e+05	2.204e-04	7.118e-06	  151.61°	  154.06°
   29   	8.120e+05	5.538e-04	1.788e-05	 -148.65°	 -146.21°
   30   	8.400e+05	4.762e-04	1.538e-05	  171.44°	  173.89°
Total Harmonic Distortion: 0.045700%(0.066546%)

.step freq=29000
N-Period=4
Fourier components of V(out)
DC component:0.000219824

Harmonic	Frequency	 Fourier 	Normalized	 Phase  	Normalized
 Number 	  [Hz]   	Component	 Component	[degree]	Phase [deg]
    1   	2.900e+04	3.097e+01	1.000e+00	   -2.54°	    0.00°
    2   	5.800e+04	8.804e-03	2.843e-04	  -97.93°	  -95.39°
    3   	8.700e+04	8.663e-03	2.798e-04	 -101.83°	  -99.29°
    4   	1.160e+05	5.315e-03	1.716e-04	 -118.62°	 -116.08°
    5   	1.450e+05	2.056e-03	6.641e-05	 -140.09°	 -137.56°
    6   	1.740e+05	3.213e-03	1.038e-04	 -113.78°	 -111.24°
    7   	2.030e+05	1.649e-03	5.326e-05	 -148.30°	 -145.76°
    8   	2.320e+05	1.603e-03	5.176e-05	 -151.19°	 -148.66°
    9   	2.610e+05	2.261e-03	7.301e-05	 -136.77°	 -134.24°
   10   	2.900e+05	9.242e-04	2.985e-05	 -151.91°	 -149.38°
   11   	3.190e+05	1.288e-03	4.159e-05	 -129.23°	 -126.70°
   12   	3.480e+05	1.044e-03	3.372e-05	 -149.41°	 -146.87°
   13   	3.770e+05	1.072e-03	3.461e-05	 -131.24°	 -128.71°
   14   	4.060e+05	1.426e-03	4.605e-05	 -128.95°	 -126.42°
   15   	4.350e+05	1.258e-03	4.062e-05	 -140.87°	 -138.33°
   16   	4.640e+05	1.500e-03	4.845e-05	 -136.70°	 -134.16°
   17   	4.930e+05	1.730e-03	5.585e-05	 -153.47°	 -150.94°
   18   	5.220e+05	1.478e-03	4.773e-05	 -163.22°	 -160.68°
   19   	5.510e+05	1.774e-03	5.730e-05	 -169.18°	 -166.64°
   20   	5.800e+05	1.590e-03	5.134e-05	  170.57°	  173.10°
   21   	6.090e+05	1.417e-03	4.576e-05	  162.73°	  165.27°
   22   	6.380e+05	1.405e-03	4.538e-05	  154.00°	  156.54°
   23   	6.670e+05	1.136e-03	3.669e-05	  126.21°	  128.74°
   24   	6.960e+05	8.605e-04	2.779e-05	  138.30°	  140.84°
   25   	7.250e+05	7.530e-04	2.432e-05	  103.32°	  105.86°
   26   	7.540e+05	3.656e-04	1.180e-05	  118.72°	  121.25°
   27   	7.830e+05	1.759e-04	5.681e-06	  141.58°	  144.11°
   28   	8.120e+05	1.997e-04	6.449e-06	  149.86°	  152.40°
   29   	8.410e+05	5.660e-04	1.828e-05	 -150.77°	 -148.23°
   30   	8.700e+05	5.014e-04	1.619e-05	  172.05°	  174.59°
Total Harmonic Distortion: 0.049462%(0.071078%)

.step freq=30000
N-Period=4
Fourier components of V(out)
DC component:0.000195609

Harmonic	Frequency	 Fourier 	Normalized	 Phase  	Normalized
 Number 	  [Hz]   	Component	 Component	[degree]	Phase [deg]
    1   	3.000e+04	3.097e+01	1.000e+00	   -2.63°	    0.00°
    2   	6.000e+04	9.324e-03	3.011e-04	  -99.25°	  -96.62°
    3   	9.000e+04	9.885e-03	3.192e-04	 -102.79°	 -100.16°
    4   	1.200e+05	5.536e-03	1.788e-04	 -119.24°	 -116.61°
    5   	1.500e+05	2.304e-03	7.442e-05	 -141.25°	 -138.62°
    6   	1.800e+05	3.310e-03	1.069e-04	 -114.04°	 -111.41°
    7   	2.100e+05	1.808e-03	5.840e-05	 -149.63°	 -147.00°
    8   	2.400e+05	1.679e-03	5.421e-05	 -153.51°	 -150.88°
    9   	2.700e+05	2.336e-03	7.545e-05	 -137.18°	 -134.55°
   10   	3.000e+05	1.008e-03	3.256e-05	 -156.57°	 -153.94°
   11   	3.300e+05	1.297e-03	4.188e-05	 -130.30°	 -127.67°
   12   	3.600e+05	1.108e-03	3.579e-05	 -149.06°	 -146.43°
   13   	3.900e+05	1.066e-03	3.444e-05	 -136.06°	 -133.43°
   14   	4.200e+05	1.511e-03	4.880e-05	 -128.18°	 -125.56°
   15   	4.500e+05	1.310e-03	4.229e-05	 -143.50°	 -140.87°
   16   	4.800e+05	1.523e-03	4.919e-05	 -139.39°	 -136.76°
   17   	5.100e+05	1.849e-03	5.971e-05	 -153.20°	 -150.57°
   18   	5.400e+05	1.506e-03	4.865e-05	 -168.88°	 -166.25°
   19   	5.700e+05	1.870e-03	6.040e-05	 -169.88°	 -167.25°
   20   	6.000e+05	1.653e-03	5.338e-05	  167.49°	  170.12°
   21   	6.300e+05	1.479e-03	4.776e-05	  158.00°	  160.63°
   22   	6.600e+05	1.443e-03	4.659e-05	  153.07°	  155.70°
   23   	6.900e+05	1.221e-03	3.942e-05	  120.44°	  123.07°
   24   	7.200e+05	8.649e-04	2.793e-05	  135.42°	  138.05°
   25   	7.500e+05	7.817e-04	2.525e-05	   99.10°	  101.72°
   26   	7.800e+05	3.727e-04	1.203e-05	  110.48°	  113.11°
   27   	8.100e+05	1.428e-04	4.611e-06	  137.78°	  140.41°
   28   	8.400e+05	2.152e-04	6.951e-06	  150.80°	  153.43°
   29   	8.700e+05	5.349e-04	1.727e-05	 -149.64°	 -147.01°
   30   	9.000e+05	5.694e-04	1.839e-05	  171.75°	  174.38°
Total Harmonic Distortion: 0.053492%(0.075321%)



Measurement: pinphv
  step	AVG(v(+hv)*(-i(vphv)))	FROM	TO
     1	4.04058	0	0.008
     2	58.9483	0	0.008
     3	58.9672	0	0.008
     4	58.9789	0	0.008
     5	58.9922	0	0.008
     6	59.0068	0	0.008
     7	59.023	0	0.008
     8	59.04	0	0.008
     9	59.0579	0	0.008
    10	59.0762	0	0.008
    11	59.0956	0	0.008
    12	59.1168	0	0.008
    13	59.1399	0	0.008
    14	59.1658	0	0.008
    15	59.1999	0	0.008
    16	59.251	0	0.008
    17	59.3251	0	0.008
    18	59.4206	0	0.008
    19	59.5341	0	0.008
    20	59.665	0	0.008
    21	59.8105	0	0.008
    22	59.9693	0	0.008
    23	60.1391	0	0.008
    24	60.3185	0	0.008
    25	60.4991	0	0.008
    26	60.6988	0	0.008
    27	60.8989	0	0.008
    28	61.1035	0	0.008
    29	61.3113	0	0.008
    30	61.5213	0	0.008
    31	61.7326	0	0.008

Measurement: pinplv
  step	AVG(v(+lv)*(-i(vplv)))	FROM	TO
     1	3.35756	0	0.008
     2	1.98385	0	0.008
     3	1.98765	0	0.008
     4	1.99199	0	0.008
     5	1.9971	0	0.008
     6	2.00351	0	0.008
     7	2.01135	0	0.008
     8	2.02075	0	0.008
     9	2.03161	0	0.008
    10	2.04397	0	0.008
    11	2.05739	0	0.008
    12	2.07161	0	0.008
    13	2.08635	0	0.008
    14	2.10119	0	0.008
    15	2.11413	0	0.008
    16	2.12255	0	0.008
    17	2.12419	0	0.008
    18	2.11929	0	0.008
    19	2.10885	0	0.008
    20	2.09269	0	0.008
    21	2.07164	0	0.008
    22	2.04595	0	0.008
    23	2.01623	0	0.008
    24	1.98269	0	0.008
    25	1.94791	0	0.008
    26	1.90632	0	0.008
    27	1.8637	0	0.008
    28	1.81885	0	0.008
    29	1.77206	0	0.008
    30	1.72363	0	0.008
    31	1.67374	0	0.008

Measurement: pinprlv
  step	AVG(v(+rlv)*(-i(vprlv)))	FROM	TO
     1	0.031152	0	0.008
     2	0.0311506	0	0.008
     3	0.0311506	0	0.008
     4	0.0311507	0	0.008
     5	0.0311507	0	0.008
     6	0.0311508	0	0.008
     7	0.0311509	0	0.008
     8	0.031151	0	0.008
     9	0.0311511	0	0.008
    10	0.0311512	0	0.008
    11	0.0311514	0	0.008
    12	0.0311515	0	0.008
    13	0.0311517	0	0.008
    14	0.0311519	0	0.008
    15	0.0311521	0	0.008
    16	0.0311524	0	0.008
    17	0.0311526	0	0.008
    18	0.0311529	0	0.008
    19	0.0311531	0	0.008
    20	0.0311534	0	0.008
    21	0.0311538	0	0.008
    22	0.0311541	0	0.008
    23	0.0311545	0	0.008
    24	0.0311548	0	0.008
    25	0.0311552	0	0.008
    26	0.0311557	0	0.008
    27	0.0311561	0	0.008
    28	0.0311566	0	0.008
    29	0.0311571	0	0.008
    30	0.0311576	0	0.008
    31	0.0311581	0	0.008

Measurement: pinnhv
  step	AVG(v(-hv)*(-i(vnhv)))	FROM	TO
     1	4.0157	0	0.008
     2	59.0332	0	0.008
     3	59.0391	0	0.008
     4	59.0677	0	0.008
     5	59.1061	0	0.008
     6	59.151	0	0.008
     7	59.2081	0	0.008
     8	59.3208	0	0.008
     9	59.5328	0	0.008
    10	59.8237	0	0.008
    11	60.1674	0	0.008
    12	60.5379	0	0.008
    13	60.9046	0	0.008
    14	61.2238	0	0.008
    15	61.4158	0	0.008
    16	61.4444	0	0.008
    17	61.4464	0	0.008
    18	61.4491	0	0.008
    19	61.4526	0	0.008
    20	61.4566	0	0.008
    21	61.4612	0	0.008
    22	61.4662	0	0.008
    23	61.4719	0	0.008
    24	61.4812	0	0.008
    25	61.5557	0	0.008
    26	61.7989	0	0.008
    27	62.2109	0	0.008
    28	62.7624	0	0.008
    29	63.4298	0	0.008
    30	64.1969	0	0.008
    31	64.9973	0	0.008

Measurement: pinnlv
  step	AVG(v(-lv)*(-i(vnlv)))	FROM	TO
     1	3.36313	0	0.008
     2	1.98155	0	0.008
     3	1.97708	0	0.008
     4	1.97204	0	0.008
     5	1.96723	0	0.008
     6	1.96294	0	0.008
     7	1.95721	0	0.008
     8	1.93611	0	0.008
     9	1.88597	0	0.008
    10	1.81285	0	0.008
    11	1.72475	0	0.008
    12	1.62965	0	0.008
    13	1.53689	0	0.008
    14	1.45992	0	0.008
    15	1.42329	0	0.008
    16	1.43852	0	0.008
    17	1.46253	0	0.008
    18	1.48651	0	0.008
    19	1.51028	0	0.008
    20	1.53366	0	0.008
    21	1.55653	0	0.008
    22	1.57878	0	0.008
    23	1.60025	0	0.008
    24	1.61975	0	0.008
    25	1.61813	0	0.008
    26	1.56306	0	0.008
    27	1.45441	0	0.008
    28	1.30136	0	0.008
    29	1.11121	0	0.008
    30	0.888947	0	0.008
    31	0.655141	0	0.008

Measurement: pinnrlv
  step	AVG(v(-rlv)*(-i(vnrlv)))	FROM	TO
     1	0.0311734	0	0.008
     2	0.0311702	0	0.008
     3	0.0311703	0	0.008
     4	0.0311703	0	0.008
     5	0.0311704	0	0.008
     6	0.0311705	0	0.008
     7	0.0311706	0	0.008
     8	0.0311707	0	0.008
     9	0.0311708	0	0.008
    10	0.0311709	0	0.008
    11	0.0311711	0	0.008
    12	0.0311713	0	0.008
    13	0.0311715	0	0.008
    14	0.0311717	0	0.008
    15	0.031172	0	0.008
    16	0.0311722	0	0.008
    17	0.0311725	0	0.008
    18	0.0311728	0	0.008
    19	0.0311731	0	0.008
    20	0.0311734	0	0.008
    21	0.0311738	0	0.008
    22	0.0311742	0	0.008
    23	0.0311746	0	0.008
    24	0.031175	0	0.008
    25	0.0311754	0	0.008
    26	0.0311759	0	0.008
    27	0.0311764	0	0.008
    28	0.0311769	0	0.008
    29	0.0311774	0	0.008
    30	0.0311779	0	0.008
    31	0.0311785	0	0.008

Measurement: pin
  step	(pinphv + pinplv + pinprlv + pinnhv + pinnlv + pinnrlv)
     1	14.8393
     2	122.009
     3	122.033
     4	122.073
     5	122.125
     6	122.187
     7	122.262
     8	122.38
     9	122.571
    10	122.819
    11	123.108
    12	123.418
    13	123.73
    14	124.013
    15	124.215
    16	124.319
    17	124.421
    18	124.538
    19	124.668
    20	124.81
    21	124.962
    22	125.123
    23	125.29
    24	125.465
    25	125.683
    26	126.029
    27	126.49
    28	127.048
    29	127.687
    30	128.393
    31	129.121

Measurement: eff
  step	(pout / pin)
     1	6.32932e-009
     2	0.491978
     3	0.491878
     4	0.491714
     5	0.491499
     6	0.491243
     7	0.490931
     8	0.490446
     9	0.48967
    10	0.488665
    11	0.487504
    12	0.486258
    13	0.485013
    14	0.483885
    15	0.483073
    16	0.482647
    17	0.482225
    18	0.481742
    19	0.481208
    20	0.480628
    21	0.48001
    22	0.479359
    23	0.478681
    24	0.477975
    25	0.477102
    26	0.475748
    27	0.473969
    28	0.471839
    29	0.469432
    30	0.466798
    31	0.464113

Measurement: vrms
  step	RMS(v(out))	FROM	TO
     1	0.000866823	0	0.008
     2	21.9136	0	0.008
     3	21.9136	0	0.008
     4	21.9135	0	0.008
     5	21.9133	0	0.008
     6	21.9132	0	0.008
     7	21.9129	0	0.008
     8	21.9127	0	0.008
     9	21.9124	0	0.008
    10	21.9121	0	0.008
    11	21.9117	0	0.008
    12	21.9113	0	0.008
    13	21.9109	0	0.008
    14	21.9104	0	0.008
    15	21.9098	0	0.008
    16	21.9093	0	0.008
    17	21.9087	0	0.008
    18	21.908	0	0.008
    19	21.9073	0	0.008
    20	21.9066	0	0.008
    21	21.9058	0	0.008
    22	21.905	0	0.008
    23	21.9041	0	0.008
    24	21.9032	0	0.008
    25	21.9023	0	0.008
    26	21.9013	0	0.008
    27	21.9002	0	0.008
    28	21.8991	0	0.008
    29	21.898	0	0.008
    30	21.8968	0	0.008
    31	21.8955	0	0.008

Measurement: pout
  step	AVG(v(out)*i(rl))	FROM	TO
     1	9.39228e-008	0	0.008
     2	60.0258	0	0.008
     3	60.0255	0	0.008
     4	60.025	0	0.008
     5	60.0242	0	0.008
     6	60.0233	0	0.008
     7	60.0221	0	0.008
     8	60.0208	0	0.008
     9	60.0192	0	0.008
    10	60.0174	0	0.008
    11	60.0154	0	0.008
    12	60.0131	0	0.008
    13	60.0107	0	0.008
    14	60.008	0	0.008
    15	60.0051	0	0.008
    16	60.002	0	0.008
    17	59.9987	0	0.008
    18	59.9951	0	0.008
    19	59.9913	0	0.008
    20	59.9873	0	0.008
    21	59.9831	0	0.008
    22	59.9786	0	0.008
    23	59.9738	0	0.008
    24	59.9689	0	0.008
    25	59.9637	0	0.008
    26	59.9582	0	0.008
    27	59.9524	0	0.008
    28	59.9464	0	0.008
    29	59.9402	0	0.008
    30	59.9336	0	0.008
    31	59.9268	0	0.008

Measurement: vout_max
  step	MAX(v(out))	FROM	TO
     1	0.000871831	0	0.008
     2	30.9834	0	0.008
     3	30.9866	0	0.008
     4	30.9876	0	0.008
     5	30.988	0	0.008
     6	30.9882	0	0.008
     7	30.9882	0	0.008
     8	30.9882	0	0.008
     9	30.988	0	0.008
    10	30.9878	0	0.008
    11	30.9875	0	0.008
    12	30.9872	0	0.008
    13	30.9869	0	0.008
    14	30.9865	0	0.008
    15	30.986	0	0.008
    16	30.9855	0	0.008
    17	30.985	0	0.008
    18	30.9844	0	0.008
    19	30.9838	0	0.008
    20	30.9831	0	0.008
    21	30.9824	0	0.008
    22	30.9816	0	0.008
    23	30.9808	0	0.008
    24	30.9799	0	0.008
    25	30.979	0	0.008
    26	30.9781	0	0.008
    27	30.9771	0	0.008
    28	30.976	0	0.008
    29	30.9749	0	0.008
    30	30.9738	0	0.008
    31	30.9726	0	0.008


Date: Fri Jul 26 04:43:09 2019
Total elapsed time: 1926.189 seconds.

tnom = 27
temp = 27
method = modified trap
totiter = 472342
traniter = 471502
tranpoints = 195013
accept = 172529
rejected = 22484
matrix size = 191
fillins = 297
Thread vector: 62.0/47.5[2] 31.4/17.0[2] 7.8/5.7[2] 7.7/5.0[2]  2592/500
Matrix Compiler1: 40.13 KB object code size  25.7/26.2/[13.6]
Matrix Compiler2: 25.27 KB object code size  14.3/22.9/[11.0]


