Circuit: * C:\Users\bakaneko\Facultad\Materias\Circuitos Electrónicos II\TPS\REPO-TPS\REPO\TP_Final\LTSPICE\amplifier_V_2.1\amplifier_V2.1.asc

Direct Newton iteration failed to find .op point.  (Use ".option noopiter" to skip.)
Starting Gmin stepping
Gmin = 10
Gmin = 1.07374
Gmin = 0.115292
Gmin = 0.0123794
Gmin = 0.00132923
Gmin = 0.000142725
Gmin = 1.5325e-005
Gmin = 1.6455e-006
Gmin = 1.76685e-007
Gmin = 1.89714e-008
Gmin = 2.03704e-009
Gmin = 2.18725e-010
Gmin = 2.34854e-011
Gmin = 2.52173e-012
Gmin = 2.70769e-013
Gmin = 0
Gmin stepping succeeded in finding the operating point.

.step freq=40000
N-Period=4
Fourier components of V(out)
DC component:-0.000199877

Harmonic	Frequency	 Fourier 	Normalized	 Phase  	Normalized
 Number 	  [Hz]   	Component	 Component	[degree]	Phase [deg]
    1   	4.000e+04	3.094e+01	1.000e+00	   -3.58°	    0.00°
    2   	8.000e+04	1.511e-02	4.883e-04	 -109.27°	 -105.69°
    3   	1.200e+05	2.839e-02	9.175e-04	 -110.95°	 -107.37°
    4   	1.600e+05	8.219e-03	2.656e-04	 -126.27°	 -122.69°
    5   	2.000e+05	4.821e-03	1.558e-04	 -147.23°	 -143.65°
    6   	2.400e+05	3.898e-03	1.260e-04	 -129.70°	 -126.12°
    7   	2.800e+05	3.044e-03	9.836e-05	 -148.90°	 -145.32°
    8   	3.200e+05	2.396e-03	7.744e-05	  171.36°	  174.94°
    9   	3.600e+05	2.400e-03	7.756e-05	 -143.00°	 -139.42°
   10   	4.000e+05	1.659e-03	5.361e-05	 -167.42°	 -163.84°
   11   	4.400e+05	5.084e-04	1.643e-05	 -179.50°	 -175.92°
   12   	4.800e+05	1.695e-03	5.478e-05	 -124.34°	 -120.76°
   13   	5.200e+05	1.138e-03	3.677e-05	 -177.53°	 -173.95°
   14   	5.600e+05	1.756e-03	5.676e-05	 -107.72°	 -104.14°
   15   	6.000e+05	2.217e-03	7.165e-05	 -153.22°	 -149.64°
   16   	6.400e+05	1.336e-03	4.318e-05	 -159.17°	 -155.59°
   17   	6.800e+05	2.444e-03	7.897e-05	 -154.82°	 -151.24°
   18   	7.200e+05	2.275e-03	7.351e-05	  163.38°	  166.96°
   19   	7.600e+05	1.660e-03	5.366e-05	  168.82°	  172.40°
   20   	8.000e+05	2.177e-03	7.036e-05	  148.99°	  152.57°
   21   	8.400e+05	1.755e-03	5.672e-05	  116.01°	  119.59°
   22   	8.800e+05	1.206e-03	3.898e-05	  114.52°	  118.10°
   23   	9.200e+05	1.394e-03	4.507e-05	   88.56°	   92.14°
   24   	9.600e+05	8.410e-04	2.718e-05	   54.06°	   57.64°
   25   	1.000e+06	5.248e-04	1.696e-05	   31.22°	   34.80°
   26   	1.040e+06	3.798e-04	1.227e-05	    1.05°	    4.64°
   27   	1.080e+06	4.720e-04	1.526e-05	  -75.23°	  -71.65°
   28   	1.120e+06	5.001e-04	1.616e-05	 -129.61°	 -126.03°
   29   	1.160e+06	6.846e-04	2.213e-05	 -157.77°	 -154.19°
   30   	1.200e+06	7.685e-04	2.484e-05	 -177.29°	 -173.71°
Total Harmonic Distortion: 0.112221%(0.127548%)


.step freq=45000
N-Period=4
Fourier components of V(out)
DC component:-0.000675031

Harmonic	Frequency	 Fourier 	Normalized	 Phase  	Normalized
 Number 	  [Hz]   	Component	 Component	[degree]	Phase [deg]
    1   	4.500e+04	3.093e+01	1.000e+00	   -4.09°	    0.00°
    2   	9.000e+04	1.821e-02	5.888e-04	 -113.92°	 -109.83°
    3   	1.350e+05	4.399e-02	1.422e-03	 -114.43°	 -110.35°
    4   	1.800e+05	9.297e-03	3.006e-04	 -129.78°	 -125.70°
    5   	2.250e+05	6.836e-03	2.210e-04	 -150.37°	 -146.28°
    6   	2.700e+05	3.772e-03	1.220e-04	 -139.58°	 -135.50°
    7   	3.150e+05	3.273e-03	1.058e-04	 -147.75°	 -143.66°
    8   	3.600e+05	2.902e-03	9.383e-05	  156.53°	  160.62°
    9   	4.050e+05	1.573e-03	5.087e-05	 -138.20°	 -134.11°
   10   	4.500e+05	1.894e-03	6.124e-05	 -160.91°	 -156.83°
   11   	4.950e+05	7.108e-04	2.298e-05	   66.23°	   70.32°
   12   	5.400e+05	2.234e-03	7.222e-05	 -103.64°	  -99.55°
   13   	5.850e+05	1.116e-03	3.610e-05	  178.34°	  182.42°
   14   	6.300e+05	1.971e-03	6.372e-05	  -88.96°	  -84.88°
   15   	6.750e+05	2.766e-03	8.944e-05	 -146.78°	 -142.70°
   16   	7.200e+05	1.163e-03	3.760e-05	 -167.83°	 -163.75°
   17   	7.650e+05	2.554e-03	8.259e-05	 -151.08°	 -146.99°
   18   	8.100e+05	2.413e-03	7.802e-05	  159.52°	  163.61°
   19   	8.550e+05	1.431e-03	4.627e-05	  152.78°	  156.87°
   20   	9.000e+05	1.900e-03	6.144e-05	  143.64°	  147.73°
   21   	9.450e+05	1.686e-03	5.453e-05	   98.73°	  102.82°
   22   	9.900e+05	9.832e-04	3.179e-05	   82.95°	   87.03°
   23   	1.035e+06	9.912e-04	3.205e-05	   57.79°	   61.87°
   24   	1.080e+06	8.767e-04	2.835e-05	   19.20°	   23.28°
   25   	1.125e+06	7.713e-04	2.494e-05	  -32.48°	  -28.39°
   26   	1.170e+06	6.795e-04	2.197e-05	  -66.18°	  -62.09°
   27   	1.215e+06	7.603e-04	2.458e-05	  -98.62°	  -94.54°
   28   	1.260e+06	9.813e-04	3.173e-05	 -125.48°	 -121.39°
   29   	1.305e+06	9.920e-04	3.208e-05	 -166.17°	 -162.08°
   30   	1.350e+06	8.928e-04	2.887e-05	  179.18°	  183.27°
Total Harmonic Distortion: 0.161231%(0.175246%)

.step freq=50000
N-Period=4
Fourier components of V(out)
DC component:-0.00139177

Harmonic	Frequency	 Fourier 	Normalized	 Phase  	Normalized
 Number 	  [Hz]   	Component	 Component	[degree]	Phase [deg]
    1   	5.000e+04	3.091e+01	1.000e+00	   -4.62°	    0.00°
    2   	1.000e+05	2.148e-02	6.948e-04	 -118.30°	 -113.68°
    3   	1.500e+05	6.582e-02	2.129e-03	 -118.07°	 -113.45°
    4   	2.000e+05	1.023e-02	3.308e-04	 -132.97°	 -128.35°
    5   	2.500e+05	9.769e-03	3.161e-04	 -154.63°	 -150.01°
    6   	3.000e+05	3.396e-03	1.099e-04	 -153.67°	 -149.05°
    7   	3.500e+05	3.214e-03	1.040e-04	 -141.86°	 -137.24°
    8   	4.000e+05	3.562e-03	1.152e-04	  142.49°	  147.11°
    9   	4.500e+05	8.685e-04	2.810e-05	  -71.02°	  -66.40°
   10   	5.000e+05	2.169e-03	7.016e-05	 -149.41°	 -144.79°
   11   	5.500e+05	1.755e-03	5.678e-05	   37.70°	   42.32°
   12   	6.000e+05	3.342e-03	1.081e-04	  -87.71°	  -83.09°
   13   	6.500e+05	1.206e-03	3.902e-05	 -172.27°	 -167.64°
   14   	7.000e+05	2.624e-03	8.488e-05	  -74.43°	  -69.81°
   15   	7.500e+05	3.480e-03	1.126e-04	 -142.12°	 -137.50°
   16   	8.000e+05	1.175e-03	3.802e-05	 -168.07°	 -163.45°
   17   	8.500e+05	2.581e-03	8.349e-05	 -147.88°	 -143.26°
   18   	9.000e+05	2.522e-03	8.159e-05	  160.30°	  164.92°
   19   	9.500e+05	1.209e-03	3.911e-05	  135.31°	  139.93°
   20   	1.000e+06	1.526e-03	4.938e-05	  135.42°	  140.04°
   21   	1.050e+06	1.384e-03	4.477e-05	   83.26°	   87.88°
   22   	1.100e+06	1.001e-03	3.237e-05	   46.92°	   51.54°
   23   	1.150e+06	8.007e-04	2.591e-05	    4.83°	    9.45°
   24   	1.200e+06	9.732e-04	3.149e-05	  -21.10°	  -16.48°
   25   	1.250e+06	1.121e-03	3.626e-05	  -59.35°	  -54.72°
   26   	1.300e+06	1.258e-03	4.071e-05	  -93.22°	  -88.60°
   27   	1.350e+06	1.039e-03	3.362e-05	 -120.23°	 -115.61°
   28   	1.400e+06	1.290e-03	4.172e-05	 -136.80°	 -132.17°
   29   	1.450e+06	1.230e-03	3.978e-05	 -168.82°	 -164.20°
   30   	1.500e+06	1.074e-03	3.475e-05	  164.66°	  169.28°
Total Harmonic Distortion: 0.231009%(0.243207%)

.step freq=55000
N-Period=4
Fourier components of V(out)
DC component:-0.00249815

Harmonic	Frequency	 Fourier 	Normalized	 Phase  	Normalized
 Number 	  [Hz]   	Component	 Component	[degree]	Phase [deg]
    1   	5.500e+04	3.089e+01	1.000e+00	   -5.19°	    0.00°
    2   	1.100e+05	2.497e-02	8.084e-04	 -122.23°	 -117.04°
    3   	1.650e+05	9.644e-02	3.122e-03	 -122.15°	 -116.95°
    4   	2.200e+05	1.095e-02	3.545e-04	 -135.59°	 -130.40°
    5   	2.750e+05	1.451e-02	4.699e-04	 -160.59°	 -155.40°
    6   	3.300e+05	2.753e-03	8.912e-05	 -176.27°	 -171.08°
    7   	3.850e+05	3.116e-03	1.009e-04	 -128.65°	 -123.45°
    8   	4.400e+05	4.435e-03	1.436e-04	  128.57°	  133.76°
    9   	4.950e+05	2.639e-03	8.545e-05	  -24.82°	  -19.63°
   10   	5.500e+05	2.822e-03	9.137e-05	 -138.53°	 -133.33°
   11   	6.050e+05	2.897e-03	9.380e-05	   20.76°	   25.95°
   12   	6.600e+05	5.093e-03	1.649e-04	  -82.56°	  -77.36°
   13   	7.150e+05	1.533e-03	4.962e-05	 -162.12°	 -156.93°
   14   	7.700e+05	3.579e-03	1.159e-04	  -70.65°	  -65.46°
   15   	8.250e+05	4.313e-03	1.396e-04	 -143.55°	 -138.35°
   16   	8.800e+05	1.415e-03	4.581e-05	 -166.45°	 -161.26°
   17   	9.350e+05	2.646e-03	8.568e-05	 -146.01°	 -140.81°
   18   	9.900e+05	2.600e-03	8.418e-05	  157.90°	  163.09°
   19   	1.045e+06	9.028e-04	2.923e-05	  114.70°	  119.89°
   20   	1.100e+06	1.286e-03	4.162e-05	  117.76°	  122.95°
   21   	1.155e+06	9.912e-04	3.209e-05	   61.67°	   66.86°
   22   	1.210e+06	1.059e-03	3.429e-05	   10.56°	   15.75°
   23   	1.265e+06	1.032e-03	3.342e-05	  -34.72°	  -29.53°
   24   	1.320e+06	1.442e-03	4.667e-05	  -57.06°	  -51.87°
   25   	1.375e+06	1.249e-03	4.043e-05	  -77.99°	  -72.80°
   26   	1.430e+06	1.634e-03	5.291e-05	 -108.93°	 -103.74°
   27   	1.485e+06	1.419e-03	4.594e-05	 -135.03°	 -129.83°
   28   	1.540e+06	1.402e-03	4.540e-05	 -156.87°	 -151.68°
   29   	1.595e+06	1.270e-03	4.110e-05	 -166.14°	 -160.95°
   30   	1.650e+06	1.155e-03	3.741e-05	  150.51°	  155.70°
Total Harmonic Distortion: 0.330320%(0.340542%)

.step freq=60000
N-Period=4
Fourier components of V(out)
DC component:-0.00410918

Harmonic	Frequency	 Fourier 	Normalized	 Phase  	Normalized
 Number 	  [Hz]   	Component	 Component	[degree]	Phase [deg]
    1   	6.000e+04	3.086e+01	1.000e+00	   -5.82°	    0.00°
    2   	1.200e+05	2.912e-02	9.437e-04	 -126.18°	 -120.37°
    3   	1.800e+05	1.398e-01	4.530e-03	 -126.86°	 -121.04°
    4   	2.400e+05	1.145e-02	3.710e-04	 -136.35°	 -130.53°
    5   	3.000e+05	2.253e-02	7.301e-04	 -169.70°	 -163.88°
    6   	3.600e+05	2.077e-03	6.732e-05	  133.16°	  138.97°
    7   	4.200e+05	3.375e-03	1.094e-04	 -115.87°	 -110.05°
    8   	4.800e+05	5.759e-03	1.866e-04	  115.36°	  121.18°
    9   	5.400e+05	5.773e-03	1.871e-04	  -27.29°	  -21.48°
   10   	6.000e+05	3.986e-03	1.292e-04	 -140.21°	 -134.39°
   11   	6.600e+05	4.274e-03	1.385e-04	    6.15°	   11.96°
   12   	7.200e+05	7.204e-03	2.335e-04	  -86.49°	  -80.67°
   13   	7.800e+05	2.110e-03	6.838e-05	 -175.21°	 -169.40°
   14   	8.400e+05	4.847e-03	1.571e-04	  -73.91°	  -68.09°
   15   	9.000e+05	5.075e-03	1.645e-04	 -153.65°	 -147.83°
   16   	9.600e+05	1.483e-03	4.807e-05	 -173.51°	 -167.69°
   17   	1.020e+06	2.775e-03	8.993e-05	 -144.93°	 -139.11°
   18   	1.080e+06	2.754e-03	8.926e-05	  140.76°	  146.58°
   19   	1.140e+06	4.264e-04	1.382e-05	   73.56°	   79.38°
   20   	1.200e+06	1.276e-03	4.134e-05	   94.72°	  100.54°
   21   	1.260e+06	9.657e-04	3.130e-05	   29.32°	   35.14°
   22   	1.320e+06	1.229e-03	3.984e-05	  -34.73°	  -28.92°
   23   	1.380e+06	1.159e-03	3.757e-05	  -39.61°	  -33.79°
   24   	1.440e+06	1.981e-03	6.421e-05	  -77.20°	  -71.38°
   25   	1.500e+06	1.198e-03	3.883e-05	 -100.15°	  -94.33°
   26   	1.560e+06	1.426e-03	4.621e-05	 -118.95°	 -113.13°
   27   	1.620e+06	1.806e-03	5.852e-05	 -145.40°	 -139.58°
   28   	1.680e+06	1.177e-03	3.815e-05	  177.48°	  183.29°
   29   	1.740e+06	1.011e-03	3.275e-05	 -164.69°	 -158.88°
   30   	1.800e+06	1.079e-03	3.498e-05	  136.95°	  142.76°
Total Harmonic Distortion: 0.472842%(0.481472%)

.step freq=65000
N-Period=4
Fourier components of V(out)
DC component:-0.0063329

Harmonic	Frequency	 Fourier 	Normalized	 Phase  	Normalized
 Number 	  [Hz]   	Component	 Component	[degree]	Phase [deg]
    1   	6.500e+04	3.082e+01	1.000e+00	   -6.52°	    0.00°
    2   	1.300e+05	3.433e-02	1.114e-03	 -129.34°	 -122.82°
    3   	1.950e+05	2.019e-01	6.550e-03	 -132.63°	 -126.11°
    4   	2.600e+05	1.208e-02	3.921e-04	 -132.09°	 -125.58°
    5   	3.250e+05	3.678e-02	1.193e-03	  177.83°	  184.35°
    6   	3.900e+05	3.832e-03	1.243e-04	   60.31°	   66.83°
    7   	4.550e+05	3.772e-03	1.224e-04	 -111.74°	 -105.22°
    8   	5.200e+05	8.028e-03	2.605e-04	  100.15°	  106.67°
    9   	5.850e+05	1.009e-02	3.274e-04	  -39.18°	  -32.66°
   10   	6.500e+05	5.816e-03	1.887e-04	 -157.35°	 -150.84°
   11   	7.150e+05	6.091e-03	1.976e-04	   -5.28°	    1.23°
   12   	7.800e+05	9.055e-03	2.938e-04	  -97.56°	  -91.04°
   13   	8.450e+05	2.386e-03	7.741e-05	  142.43°	  148.94°
   14   	9.100e+05	6.516e-03	2.114e-04	  -79.50°	  -72.98°
   15   	9.750e+05	5.535e-03	1.796e-04	 -168.76°	 -162.24°
   16   	1.040e+06	1.107e-03	3.593e-05	 -152.98°	 -146.46°
   17   	1.105e+06	3.585e-03	1.163e-04	 -151.48°	 -144.96°
   18   	1.170e+06	3.023e-03	9.809e-05	  112.25°	  118.76°
   19   	1.235e+06	1.329e-04	4.312e-06	  -47.50°	  -40.99°
   20   	1.300e+06	1.908e-03	6.191e-05	   81.26°	   87.78°
   21   	1.365e+06	1.603e-03	5.202e-05	   -3.41°	    3.10°
   22   	1.430e+06	1.379e-03	4.475e-05	  -70.57°	  -64.06°
   23   	1.495e+06	1.661e-03	5.388e-05	  -30.34°	  -23.82°
   24   	1.560e+06	2.436e-03	7.903e-05	  -88.99°	  -82.48°
   25   	1.625e+06	1.049e-03	3.405e-05	 -125.70°	 -119.18°
   26   	1.690e+06	1.444e-03	4.687e-05	 -117.78°	 -111.26°
   27   	1.755e+06	2.240e-03	7.268e-05	 -157.19°	 -150.67°
   28   	1.820e+06	1.141e-03	3.704e-05	  162.85°	  169.37°
   29   	1.885e+06	1.019e-03	3.305e-05	  170.44°	  176.95°
   30   	1.950e+06	1.456e-03	4.723e-05	  107.29°	  113.81°
Total Harmonic Distortion: 0.679872%(0.682794%)

.step freq=70000
N-Period=4
Fourier components of V(out)
DC component:-0.01019

Harmonic	Frequency	 Fourier 	Normalized	 Phase  	Normalized
 Number 	  [Hz]   	Component	 Component	[degree]	Phase [deg]
    1   	7.000e+04	3.076e+01	1.000e+00	   -7.33°	    0.00°
    2   	1.400e+05	4.293e-02	1.396e-03	 -133.33°	 -126.00°
    3   	2.100e+05	2.927e-01	9.515e-03	 -140.12°	 -132.79°
    4   	2.800e+05	1.340e-02	4.357e-04	 -125.23°	 -117.90°
    5   	3.500e+05	6.129e-02	1.993e-03	  160.67°	  168.00°
    6   	4.200e+05	9.246e-03	3.006e-04	   24.65°	   31.98°
    7   	4.900e+05	2.522e-03	8.200e-05	 -101.05°	  -93.72°
    8   	5.600e+05	1.163e-02	3.781e-04	   82.62°	   89.95°
    9   	6.300e+05	1.650e-02	5.363e-04	  -53.30°	  -45.97°
   10   	7.000e+05	7.024e-03	2.283e-04	  179.51°	  186.84°
   11   	7.700e+05	9.314e-03	3.028e-04	  -25.92°	  -18.59°
   12   	8.400e+05	1.209e-02	3.932e-04	 -115.55°	 -108.22°
   13   	9.100e+05	3.379e-03	1.099e-04	  111.91°	  119.24°
   14   	9.800e+05	8.321e-03	2.705e-04	 -103.46°	  -96.13°
   15   	1.050e+06	6.571e-03	2.136e-04	  158.36°	  165.69°
   16   	1.120e+06	6.563e-04	2.134e-05	  -84.24°	  -76.92°
   17   	1.190e+06	4.550e-03	1.479e-04	 -179.76°	 -172.43°
   18   	1.260e+06	4.133e-03	1.344e-04	   66.50°	   73.83°
   19   	1.330e+06	4.025e-04	1.308e-05	 -105.06°	  -97.73°
   20   	1.400e+06	3.422e-03	1.112e-04	   58.57°	   65.90°
   21   	1.470e+06	3.770e-03	1.226e-04	  -36.39°	  -29.06°
   22   	1.540e+06	1.681e-03	5.465e-05	 -100.74°	  -93.41°
   23   	1.610e+06	2.974e-03	9.669e-05	  -45.32°	  -37.99°
   24   	1.680e+06	3.575e-03	1.162e-04	 -115.75°	 -108.42°
   25   	1.750e+06	1.095e-03	3.560e-05	 -171.07°	 -163.74°
   26   	1.820e+06	2.370e-03	7.706e-05	 -137.13°	 -129.80°
   27   	1.890e+06	2.974e-03	9.668e-05	  167.50°	  174.83°
   28   	1.960e+06	1.271e-03	4.131e-05	  112.93°	  120.26°
   29   	2.030e+06	1.681e-03	5.464e-05	  112.36°	  119.68°
   30   	2.100e+06	2.406e-03	7.823e-05	   49.52°	   56.85°
Total Harmonic Distortion: 0.988569%(0.989191%)

.step freq=75000
N-Period=4
Fourier components of V(out)
DC component:-0.0175617

Harmonic	Frequency	 Fourier 	Normalized	 Phase  	Normalized
 Number 	  [Hz]   	Component	 Component	[degree]	Phase [deg]
    1   	7.500e+04	3.067e+01	1.000e+00	   -8.32°	    0.00°
    2   	1.500e+05	5.539e-02	1.806e-03	 -137.43°	 -129.11°
    3   	2.250e+05	4.290e-01	1.399e-02	 -149.93°	 -141.61°
    4   	3.000e+05	1.505e-02	4.906e-04	 -115.25°	 -106.93°
    5   	3.750e+05	1.007e-01	3.285e-03	  140.16°	  148.48°
    6   	4.500e+05	1.614e-02	5.262e-04	    8.63°	   16.95°
    7   	5.250e+05	8.168e-03	2.664e-04	  -24.12°	  -15.80°
    8   	6.000e+05	1.617e-02	5.273e-04	   64.67°	   72.99°
    9   	6.750e+05	2.483e-02	8.098e-04	  -70.68°	  -62.37°
   10   	7.500e+05	9.836e-03	3.207e-04	  176.50°	  184.82°
   11   	8.250e+05	1.057e-02	3.446e-04	  -45.23°	  -36.92°
   12   	9.000e+05	1.385e-02	4.518e-04	 -142.22°	 -133.90°
   13   	9.750e+05	5.478e-03	1.787e-04	   94.88°	  103.19°
   14   	1.050e+06	8.595e-03	2.803e-04	 -115.44°	 -107.12°
   15   	1.125e+06	8.318e-03	2.713e-04	  126.25°	  134.57°
   16   	1.200e+06	3.570e-04	1.164e-05	  -38.75°	  -30.44°
   17   	1.275e+06	2.939e-03	9.586e-05	  142.08°	  150.40°
   18   	1.350e+06	7.028e-03	2.292e-04	   22.64°	   30.95°
   19   	1.425e+06	2.162e-03	7.051e-05	  -92.26°	  -83.95°
   20   	1.500e+06	2.331e-03	7.602e-05	   -6.24°	    2.08°
   21   	1.575e+06	4.598e-03	1.499e-04	  -68.63°	  -60.31°
   22   	1.650e+06	2.775e-03	9.051e-05	 -145.49°	 -137.17°
   23   	1.725e+06	3.308e-03	1.079e-04	  -96.28°	  -87.96°
   24   	1.800e+06	3.376e-03	1.101e-04	 -163.36°	 -155.04°
   25   	1.875e+06	3.069e-03	1.001e-04	  125.50°	  133.82°
   26   	1.950e+06	1.894e-03	6.176e-05	  132.80°	  141.12°
   27   	2.025e+06	2.085e-03	6.799e-05	   77.08°	   85.40°
   28   	2.100e+06	1.917e-03	6.253e-05	   21.38°	   29.70°
   29   	2.175e+06	1.996e-03	6.509e-05	   22.50°	   30.82°
   30   	2.250e+06	2.927e-03	9.544e-05	  -27.31°	  -18.99°
Total Harmonic Distortion: 1.456334%(1.456880%)

.step freq=80000
N-Period=4
Fourier components of V(out)
DC component:-0.0297185

Harmonic	Frequency	 Fourier 	Normalized	 Phase  	Normalized
 Number 	  [Hz]   	Component	 Component	[degree]	Phase [deg]
    1   	8.000e+04	3.050e+01	1.000e+00	   -9.58°	    0.00°
    2   	1.600e+05	7.376e-02	2.419e-03	 -142.48°	 -132.90°
    3   	2.400e+05	6.290e-01	2.063e-02	 -162.57°	 -152.99°
    4   	3.200e+05	1.591e-02	5.216e-04	 -111.59°	 -102.01°
    5   	4.000e+05	1.550e-01	5.083e-03	  114.88°	  124.46°
    6   	4.800e+05	2.535e-02	8.311e-04	   -1.60°	    7.98°
    7   	5.600e+05	3.041e-02	9.971e-04	  -38.95°	  -29.37°
    8   	6.400e+05	1.557e-02	5.106e-04	   50.48°	   60.06°
    9   	7.200e+05	3.458e-02	1.134e-03	  -94.13°	  -84.55°
   10   	8.000e+05	1.437e-02	4.713e-04	  160.61°	  170.18°
   11   	8.800e+05	5.507e-03	1.806e-04	  -62.42°	  -52.84°
   12   	9.600e+05	1.336e-02	4.382e-04	 -150.87°	 -141.29°
   13   	1.040e+06	8.809e-03	2.889e-04	   67.94°	   77.52°
   14   	1.120e+06	7.186e-03	2.356e-04	 -154.88°	 -145.31°
   15   	1.200e+06	6.598e-03	2.163e-04	  105.41°	  114.98°
   16   	1.280e+06	5.128e-03	1.681e-04	   -8.84°	    0.73°
   17   	1.360e+06	1.457e-03	4.776e-05	   68.28°	   77.86°
   18   	1.440e+06	5.137e-03	1.685e-04	  -24.41°	  -14.83°
   19   	1.520e+06	3.557e-03	1.166e-04	  -96.16°	  -86.58°
   20   	1.600e+06	2.350e-03	7.706e-05	  -74.87°	  -65.30°
   21   	1.680e+06	4.460e-03	1.462e-04	 -128.28°	 -118.70°
   22   	1.760e+06	4.103e-03	1.345e-04	  178.25°	  187.83°
   23   	1.840e+06	1.877e-03	6.156e-05	  165.07°	  174.65°
   24   	1.920e+06	3.081e-03	1.010e-04	   83.92°	   93.50°
   25   	2.000e+06	2.317e-03	7.598e-05	   73.43°	   83.01°
   26   	2.080e+06	1.725e-03	5.655e-05	   55.36°	   64.93°
   27   	2.160e+06	3.677e-03	1.206e-04	  -17.86°	   -8.29°
   28   	2.240e+06	2.758e-03	9.044e-05	  -61.60°	  -52.02°
   29   	2.320e+06	2.065e-03	6.772e-05	  -65.37°	  -55.79°
   30   	2.400e+06	3.577e-03	1.173e-04	 -123.98°	 -114.40°
Total Harmonic Distortion: 2.148056%(2.148489%)

.step freq=85000
N-Period=4
Fourier components of V(out)
DC component:-0.047612

Harmonic	Frequency	 Fourier 	Normalized	 Phase  	Normalized
 Number 	  [Hz]   	Component	 Component	[degree]	Phase [deg]
    1   	8.500e+04	3.020e+01	1.000e+00	  -11.22°	    0.00°
    2   	1.700e+05	9.773e-02	3.236e-03	 -150.02°	 -138.80°
    3   	2.550e+05	9.016e-01	2.985e-02	 -177.71°	 -166.49°
    4   	3.400e+05	1.358e-02	4.496e-04	  -93.80°	  -82.58°
    5   	4.250e+05	2.175e-01	7.201e-03	   83.47°	   94.69°
    6   	5.100e+05	3.403e-02	1.127e-03	  -17.14°	   -5.92°
    7   	5.950e+05	7.238e-02	2.396e-03	  -73.02°	  -61.81°
    8   	6.800e+05	1.321e-02	4.374e-04	   59.97°	   71.19°
    9   	7.650e+05	3.703e-02	1.226e-03	 -136.70°	 -125.48°
   10   	8.500e+05	1.482e-02	4.905e-04	  147.54°	  158.76°
   11   	9.350e+05	1.043e-02	3.452e-04	   16.07°	   27.29°
   12   	1.020e+06	1.398e-02	4.629e-04	 -167.29°	 -156.07°
   13   	1.105e+06	5.575e-03	1.846e-04	   46.86°	   58.08°
   14   	1.190e+06	1.081e-03	3.580e-05	  126.17°	  137.39°
   15   	1.275e+06	5.730e-03	1.897e-04	   76.14°	   87.36°
   16   	1.360e+06	5.790e-03	1.917e-04	  -50.32°	  -39.11°
   17   	1.445e+06	3.008e-03	9.960e-05	  -73.38°	  -62.16°
   18   	1.530e+06	4.729e-03	1.566e-04	  -68.23°	  -57.01°
   19   	1.615e+06	3.260e-03	1.079e-04	 -139.76°	 -128.54°
   20   	1.700e+06	4.917e-03	1.628e-04	  178.85°	  190.07°
   21   	1.785e+06	4.171e-03	1.381e-04	  161.51°	  172.73°
   22   	1.870e+06	2.355e-03	7.798e-05	   50.23°	   61.45°
   23   	1.955e+06	2.536e-03	8.396e-05	   65.59°	   76.81°
   24   	2.040e+06	3.690e-03	1.222e-04	   33.41°	   44.62°
   25   	2.125e+06	3.196e-03	1.058e-04	  -52.81°	  -41.59°
   26   	2.210e+06	2.217e-03	7.339e-05	  -73.47°	  -62.25°
   27   	2.295e+06	3.697e-03	1.224e-04	  -90.54°	  -79.32°
   28   	2.380e+06	4.118e-03	1.363e-04	 -164.26°	 -153.04°
   29   	2.465e+06	1.532e-03	5.072e-05	  130.01°	  141.22°
   30   	2.550e+06	2.034e-03	6.733e-05	  151.69°	  162.90°
Total Harmonic Distortion: 3.103586%(3.103926%)

.step freq=90000
N-Period=4
Fourier components of V(out)
DC component:-0.0687356

Harmonic	Frequency	 Fourier 	Normalized	 Phase  	Normalized
 Number 	  [Hz]   	Component	 Component	[degree]	Phase [deg]
    1   	9.000e+04	2.974e+01	1.000e+00	  -13.27°	    0.00°
    2   	1.800e+05	1.207e-01	4.060e-03	 -158.99°	 -145.72°
    3   	2.700e+05	1.223e+00	4.112e-02	  166.20°	  179.46°
    4   	3.600e+05	2.136e-02	7.180e-04	  -60.33°	  -47.06°
    5   	4.500e+05	2.736e-01	9.200e-03	   46.89°	   60.16°
    6   	5.400e+05	3.525e-02	1.185e-03	  -35.55°	  -22.28°
    7   	6.300e+05	1.242e-01	4.176e-03	 -114.42°	 -101.15°
    8   	7.200e+05	1.716e-02	5.768e-04	   66.79°	   80.05°
    9   	8.100e+05	2.595e-02	8.726e-04	  143.88°	  157.15°
   10   	9.000e+05	1.479e-02	4.974e-04	  148.19°	  161.45°
   11   	9.900e+05	2.193e-02	7.375e-04	  -35.17°	  -21.91°
   12   	1.080e+06	1.040e-02	3.497e-04	  165.20°	  178.46°
   13   	1.170e+06	8.913e-03	2.997e-04	   94.68°	  107.95°
   14   	1.260e+06	3.591e-03	1.207e-04	  -40.37°	  -27.11°
   15   	1.350e+06	4.592e-03	1.544e-04	  -16.98°	   -3.72°
   16   	1.440e+06	5.788e-03	1.946e-04	  -79.20°	  -65.93°
   17   	1.530e+06	3.282e-03	1.104e-04	 -131.08°	 -117.81°
   18   	1.620e+06	6.094e-03	2.049e-04	 -163.13°	 -149.87°
   19   	1.710e+06	3.788e-03	1.274e-04	  155.57°	  168.83°
   20   	1.800e+06	3.437e-03	1.156e-04	   62.04°	   75.31°
   21   	1.890e+06	4.643e-03	1.561e-04	   78.02°	   91.29°
   22   	1.980e+06	2.695e-03	9.061e-05	  -24.96°	  -11.69°
   23   	2.070e+06	3.483e-03	1.171e-04	  -77.03°	  -63.76°
   24   	2.160e+06	3.630e-03	1.221e-04	  -35.61°	  -22.34°
   25   	2.250e+06	4.536e-03	1.525e-04	 -130.42°	 -117.16°
   26   	2.340e+06	5.119e-03	1.721e-04	  156.11°	  169.38°
   27   	2.430e+06	5.838e-04	1.963e-05	  130.04°	  143.31°
   28   	2.520e+06	2.785e-03	9.363e-05	  123.09°	  136.36°
   29   	2.610e+06	3.952e-03	1.329e-04	   39.01°	   52.28°
   30   	2.700e+06	2.778e-03	9.341e-05	  -29.66°	  -16.40°
Total Harmonic Distortion: 4.258724%(4.258994%)

.step freq=95000
N-Period=4
Fourier components of V(out)
DC component:-0.0865716

Harmonic	Frequency	 Fourier 	Normalized	 Phase  	Normalized
 Number 	  [Hz]   	Component	 Component	[degree]	Phase [deg]
    1   	9.500e+04	2.911e+01	1.000e+00	  -15.66°	    0.00°
    2   	1.900e+05	1.384e-01	4.752e-03	 -166.11°	 -150.46°
    3   	2.850e+05	1.539e+00	5.285e-02	  150.74°	  166.40°
    4   	3.800e+05	3.726e-02	1.280e-03	  -57.73°	  -42.07°
    5   	4.750e+05	3.158e-01	1.085e-02	    7.92°	   23.57°
    6   	5.700e+05	3.106e-02	1.067e-03	  -50.15°	  -34.49°
    7   	6.650e+05	1.646e-01	5.654e-03	 -156.57°	 -140.91°
    8   	7.600e+05	2.179e-02	7.485e-04	   56.34°	   72.00°
    9   	8.550e+05	3.572e-02	1.227e-03	   31.05°	   46.71°
   10   	9.500e+05	1.744e-02	5.990e-04	  151.38°	  167.04°
   11   	1.045e+06	2.256e-02	7.749e-04	 -105.05°	  -89.39°
   12   	1.140e+06	5.648e-03	1.940e-04	  105.05°	  120.71°
   13   	1.235e+06	1.741e-02	5.982e-04	   52.87°	   68.53°
   14   	1.330e+06	7.664e-03	2.632e-04	  -86.57°	  -70.91°
   15   	1.425e+06	9.371e-03	3.219e-04	 -101.90°	  -86.25°
   16   	1.520e+06	5.407e-03	1.857e-04	 -156.49°	 -140.83°
   17   	1.615e+06	4.158e-03	1.428e-04	  138.95°	  154.61°
   18   	1.710e+06	4.098e-03	1.408e-04	  119.07°	  134.73°
   19   	1.805e+06	5.910e-03	2.030e-04	   60.70°	   76.36°
   20   	1.900e+06	3.948e-03	1.356e-04	  -43.46°	  -27.80°
   21   	1.995e+06	1.231e-03	4.229e-05	  -83.10°	  -67.45°
   22   	2.090e+06	4.666e-03	1.603e-04	  -59.27°	  -43.61°
   23   	2.185e+06	5.477e-03	1.881e-04	 -158.13°	 -142.47°
   24   	2.280e+06	3.156e-03	1.084e-04	  129.63°	  145.29°
   25   	2.375e+06	2.358e-03	8.101e-05	  165.23°	  180.89°
   26   	2.470e+06	4.731e-03	1.625e-04	   75.01°	   90.67°
   27   	2.565e+06	4.298e-03	1.476e-04	  -17.69°	   -2.03°
   28   	2.660e+06	1.348e-03	4.632e-05	  -62.10°	  -46.44°
   29   	2.755e+06	3.057e-03	1.050e-04	  -65.14°	  -49.48°
   30   	2.850e+06	4.324e-03	1.485e-04	 -146.94°	 -131.28°
Total Harmonic Distortion: 5.451135%(5.451368%)

.step freq=100000
N-Period=4
Fourier components of V(out)
DC component:-0.101334

Harmonic	Frequency	 Fourier 	Normalized	 Phase  	Normalized
 Number 	  [Hz]   	Component	 Component	[degree]	Phase [deg]
    1   	1.000e+05	2.836e+01	1.000e+00	  -18.29°	    0.00°
    2   	2.000e+05	1.473e-01	5.195e-03	 -173.51°	 -155.22°
    3   	3.000e+05	1.810e+00	6.383e-02	  136.70°	  154.99°
    4   	4.000e+05	5.477e-02	1.931e-03	  -68.26°	  -49.97°
    5   	5.000e+05	3.609e-01	1.272e-02	  -30.60°	  -12.31°
    6   	6.000e+05	2.406e-02	8.481e-04	  -51.70°	  -33.41°
    7   	7.000e+05	1.863e-01	6.567e-03	  162.29°	  180.58°
    8   	8.000e+05	2.026e-02	7.143e-04	   36.26°	   54.55°
    9   	9.000e+05	6.643e-02	2.342e-03	  -36.14°	  -17.85°
   10   	1.000e+06	2.299e-02	8.105e-04	  128.51°	  146.80°
   11   	1.100e+06	2.437e-02	8.593e-04	  157.82°	  176.11°
   12   	1.200e+06	6.623e-03	2.335e-04	  -45.32°	  -27.03°
   13   	1.300e+06	2.226e-02	7.849e-04	  -21.03°	   -2.74°
   14   	1.400e+06	6.669e-03	2.351e-04	 -157.64°	 -139.34°
   15   	1.500e+06	1.305e-02	4.601e-04	  176.57°	  194.87°
   16   	1.600e+06	5.232e-03	1.845e-04	  140.26°	  158.56°
   17   	1.700e+06	7.636e-03	2.692e-04	   23.96°	   42.25°
   18   	1.800e+06	7.462e-04	2.631e-05	   11.85°	   30.14°
   19   	1.900e+06	2.994e-03	1.056e-04	    7.14°	   25.43°
   20   	2.000e+06	6.811e-03	2.401e-04	  -91.95°	  -73.66°
   21   	2.100e+06	4.364e-03	1.539e-04	  154.35°	  172.65°
   22   	2.200e+06	1.864e-03	6.573e-05	 -145.35°	 -127.05°
   23   	2.300e+06	5.768e-03	2.033e-04	  146.18°	  164.47°
   24   	2.400e+06	6.539e-03	2.305e-04	   32.10°	   50.39°
   25   	2.500e+06	2.804e-03	9.886e-05	  -51.64°	  -33.35°
   26   	2.600e+06	1.686e-03	5.946e-05	  -34.44°	  -16.14°
   27   	2.700e+06	4.810e-03	1.696e-04	 -111.64°	  -93.35°
   28   	2.800e+06	3.268e-03	1.152e-04	  168.19°	  186.48°
   29   	2.900e+06	2.191e-03	7.725e-05	  132.90°	  151.19°
   30   	3.000e+06	4.196e-03	1.479e-04	   81.09°	   99.38°
Total Harmonic Distortion: 6.571847%(6.572067%)

.step freq=105000
N-Period=4
Fourier components of V(out)
DC component:-0.109982

Harmonic	Frequency	 Fourier 	Normalized	 Phase  	Normalized
 Number 	  [Hz]   	Component	 Component	[degree]	Phase [deg]
    1   	1.050e+05	2.753e+01	1.000e+00	  -21.09°	    0.00°
    2   	2.100e+05	1.493e-01	5.423e-03	  179.82°	  200.91°
    3   	3.150e+05	2.020e+00	7.337e-02	  123.97°	  145.06°
    4   	4.200e+05	6.851e-02	2.488e-03	  -80.27°	  -59.18°
    5   	5.250e+05	4.202e-01	1.526e-02	  -65.35°	  -44.26°
    6   	6.300e+05	2.253e-02	8.184e-04	  -40.85°	  -19.76°
    7   	7.350e+05	1.915e-01	6.954e-03	  121.72°	  142.81°
    8   	8.400e+05	1.561e-02	5.668e-04	   29.01°	   50.10°
    9   	9.450e+05	9.106e-02	3.307e-03	  -85.96°	  -64.87°
   10   	1.050e+06	2.263e-02	8.219e-04	   96.20°	  117.29°
   11   	1.155e+06	3.743e-02	1.359e-03	   76.56°	   97.65°
   12   	1.260e+06	1.260e-02	4.577e-04	 -104.67°	  -83.58°
   13   	1.365e+06	2.798e-02	1.016e-03	 -102.28°	  -81.19°
   14   	1.470e+06	7.130e-03	2.589e-04	  116.13°	  137.22°
   15   	1.575e+06	1.448e-02	5.259e-04	   77.37°	   98.46°
   16   	1.680e+06	4.646e-03	1.687e-04	  117.55°	  138.64°
   17   	1.785e+06	8.210e-03	2.982e-04	  -63.39°	  -42.30°
   18   	1.890e+06	3.727e-03	1.353e-04	 -108.32°	  -87.23°
   19   	1.995e+06	4.197e-03	1.524e-04	   34.68°	   55.77°
   20   	2.100e+06	8.375e-03	3.041e-04	 -152.10°	 -131.01°
   21   	2.205e+06	7.376e-03	2.679e-04	  118.38°	  139.47°
   22   	2.310e+06	4.888e-03	1.775e-04	   -2.97°	   18.12°
   23   	2.415e+06	2.755e-03	1.001e-04	   37.61°	   58.70°
   24   	2.520e+06	4.997e-03	1.815e-04	  -54.19°	  -33.10°
   25   	2.625e+06	5.751e-03	2.089e-04	 -155.85°	 -134.77°
   26   	2.730e+06	2.014e-03	7.315e-05	  142.62°	  163.71°
   27   	2.835e+06	2.811e-03	1.021e-04	  130.46°	  151.55°
   28   	2.940e+06	3.981e-03	1.446e-04	   39.81°	   60.89°
   29   	3.045e+06	1.685e-03	6.121e-05	  -19.18°	    1.91°
   30   	3.150e+06	2.853e-03	1.036e-04	  -43.77°	  -22.69°
Total Harmonic Distortion: 7.561167%(7.561395%)

.step freq=110000
N-Period=4
Fourier components of V(out)
DC component:-0.112634

Harmonic	Frequency	 Fourier 	Normalized	 Phase  	Normalized
 Number 	  [Hz]   	Component	 Component	[degree]	Phase [deg]
    1   	1.100e+05	2.666e+01	1.000e+00	  -23.99°	    0.00°
    2   	2.200e+05	1.470e-01	5.511e-03	  173.27°	  197.26°
    3   	3.300e+05	2.166e+00	8.124e-02	  112.31°	  136.29°
    4   	4.400e+05	7.885e-02	2.957e-03	  -93.05°	  -69.07°
    5   	5.500e+05	4.887e-01	1.833e-02	  -94.62°	  -70.63°
    6   	6.600e+05	2.725e-02	1.022e-03	  -35.15°	  -11.16°
    7   	7.700e+05	1.921e-01	7.205e-03	   81.18°	  105.16°
    8   	8.800e+05	1.317e-02	4.940e-04	   40.88°	   64.87°
    9   	9.900e+05	1.049e-01	3.934e-03	 -130.81°	 -106.83°
   10   	1.100e+06	1.710e-02	6.412e-04	   56.47°	   80.46°
   11   	1.210e+06	5.073e-02	1.902e-03	   15.38°	   39.37°
   12   	1.320e+06	1.292e-02	4.844e-04	 -153.80°	 -129.81°
   13   	1.430e+06	3.441e-02	1.290e-03	 -173.70°	 -149.71°
   14   	1.540e+06	8.859e-03	3.322e-04	   59.31°	   83.30°
   15   	1.650e+06	1.963e-02	7.361e-04	  -15.61°	    8.38°
   16   	1.760e+06	4.750e-03	1.782e-04	  104.72°	  128.70°
   17   	1.870e+06	4.147e-03	1.555e-04	 -153.13°	 -129.14°
   18   	1.980e+06	7.409e-03	2.779e-04	 -159.96°	 -135.97°
   19   	2.090e+06	5.250e-03	1.969e-04	  -13.90°	   10.09°
   20   	2.200e+06	6.273e-03	2.353e-04	  134.44°	  158.43°
   21   	2.310e+06	9.390e-03	3.522e-04	   58.86°	   82.85°
   22   	2.420e+06	9.210e-03	3.454e-04	  -86.72°	  -62.73°
   23   	2.530e+06	4.423e-03	1.659e-04	 -129.80°	 -105.81°
   24   	2.640e+06	1.386e-03	5.199e-05	  178.72°	  202.71°
   25   	2.750e+06	6.056e-03	2.271e-04	   91.56°	  115.55°
   26   	2.860e+06	1.685e-03	6.320e-05	   35.26°	   59.25°
   27   	2.970e+06	1.304e-03	4.891e-05	   11.71°	   35.70°
   28   	3.080e+06	5.614e-03	2.106e-04	  -73.12°	  -49.13°
   29   	3.190e+06	3.884e-03	1.457e-04	 -179.57°	 -155.59°
   30   	3.300e+06	2.310e-03	8.663e-05	   94.06°	  118.05°
Total Harmonic Distortion: 8.397123%(8.397336%)

.step freq=115000
N-Period=4
Fourier components of V(out)
DC component:-0.109274

Harmonic	Frequency	 Fourier 	Normalized	 Phase  	Normalized
 Number 	  [Hz]   	Component	 Component	[degree]	Phase [deg]
    1   	1.150e+05	2.577e+01	1.000e+00	  -26.93°	    0.00°
    2   	2.300e+05	1.420e-01	5.510e-03	  166.86°	  193.78°
    3   	3.450e+05	2.250e+00	8.731e-02	  101.48°	  128.41°
    4   	4.600e+05	8.546e-02	3.316e-03	 -105.77°	  -78.85°
    5   	5.750e+05	5.507e-01	2.137e-02	 -119.05°	  -92.13°
    6   	6.900e+05	3.316e-02	1.287e-03	  -40.76°	  -13.83°
    7   	8.050e+05	1.964e-01	7.620e-03	   42.19°	   69.11°
    8   	9.200e+05	1.555e-02	6.034e-04	   46.70°	   73.63°
    9   	1.035e+06	1.106e-01	4.293e-03	 -173.81°	 -146.88°
   10   	1.150e+06	1.197e-02	4.644e-04	    3.86°	   30.79°
   11   	1.265e+06	5.944e-02	2.306e-03	  -39.01°	  -12.09°
   12   	1.380e+06	1.094e-02	4.246e-04	  148.82°	  175.74°
   13   	1.495e+06	3.817e-02	1.481e-03	  121.83°	  148.76°
   14   	1.610e+06	9.001e-03	3.493e-04	   15.50°	   42.43°
   15   	1.725e+06	2.571e-02	9.976e-04	  -92.13°	  -65.20°
   16   	1.840e+06	5.639e-03	2.188e-04	   80.76°	  107.69°
   17   	1.955e+06	4.391e-03	1.704e-04	   18.90°	   45.83°
   18   	2.070e+06	1.041e-02	4.038e-04	  146.98°	  173.91°
   19   	2.185e+06	2.110e-03	8.188e-05	  -49.38°	  -22.45°
   20   	2.300e+06	2.912e-03	1.130e-04	   17.21°	   44.13°
   21   	2.415e+06	8.250e-03	3.201e-04	  -20.77°	    6.16°
   22   	2.530e+06	9.533e-03	3.699e-04	 -172.01°	 -145.09°
   23   	2.645e+06	6.604e-03	2.562e-04	  129.72°	  156.65°
   24   	2.760e+06	1.926e-03	7.474e-05	   -0.71°	   26.21°
   25   	2.875e+06	6.819e-03	2.646e-04	  -21.51°	    5.42°
   26   	2.990e+06	1.746e-03	6.775e-05	 -110.23°	  -83.30°
   27   	3.105e+06	2.287e-03	8.875e-05	  101.41°	  128.33°
   28   	3.220e+06	5.362e-03	2.081e-04	 -169.65°	 -142.73°
   29   	3.335e+06	4.517e-03	1.753e-04	   93.83°	  120.76°
   30   	3.450e+06	6.004e-03	2.330e-04	  -26.91°	    0.02°
Total Harmonic Distortion: 9.060984%(9.061176%)

.step freq=120000
N-Period=4
Fourier components of V(out)
DC component:-0.0999643

Harmonic	Frequency	 Fourier 	Normalized	 Phase  	Normalized
 Number 	  [Hz]   	Component	 Component	[degree]	Phase [deg]
    1   	1.200e+05	2.488e+01	1.000e+00	  -29.84°	    0.00°
    2   	2.400e+05	1.346e-01	5.408e-03	  160.98°	  190.82°
    3   	3.600e+05	2.286e+00	9.187e-02	   91.44°	  121.28°
    4   	4.800e+05	8.705e-02	3.498e-03	 -118.12°	  -88.28°
    5   	6.000e+05	5.995e-01	2.409e-02	 -139.71°	 -109.87°
    6   	7.200e+05	3.702e-02	1.488e-03	  -54.52°	  -24.68°
    7   	8.400e+05	2.075e-01	8.338e-03	    7.36°	   37.20°
    8   	9.600e+05	1.992e-02	8.003e-04	   32.49°	   62.33°
    9   	1.080e+06	1.138e-01	4.573e-03	  146.19°	  176.03°
   10   	1.200e+06	8.284e-03	3.329e-04	  -58.47°	  -28.63°
   11   	1.320e+06	6.478e-02	2.603e-03	  -86.90°	  -57.06°
   12   	1.440e+06	8.125e-03	3.265e-04	   86.80°	  116.64°
   13   	1.560e+06	4.038e-02	1.623e-03	   65.79°	   95.63°
   14   	1.680e+06	8.994e-03	3.614e-04	  -15.65°	   14.19°
   15   	1.800e+06	3.102e-02	1.247e-03	 -153.36°	 -123.52°
   16   	1.920e+06	5.341e-03	2.146e-04	   56.33°	   86.16°
   17   	2.040e+06	1.069e-02	4.297e-04	  -48.91°	  -19.07°
   18   	2.160e+06	1.090e-02	4.380e-04	   85.65°	  115.49°
   19   	2.280e+06	1.810e-03	7.273e-05	   17.44°	   47.28°
   20   	2.400e+06	3.952e-03	1.588e-04	 -126.36°	  -96.52°
   21   	2.520e+06	7.355e-03	2.956e-04	 -113.55°	  -83.71°
   22   	2.640e+06	7.568e-03	3.041e-04	  100.25°	  130.09°
   23   	2.760e+06	7.083e-03	2.847e-04	   27.60°	   57.44°
   24   	2.880e+06	1.644e-03	6.607e-05	 -104.36°	  -74.52°
   25   	3.000e+06	6.056e-03	2.434e-04	 -119.44°	  -89.61°
   26   	3.120e+06	3.922e-03	1.576e-04	  156.75°	  186.59°
   27   	3.240e+06	4.570e-03	1.836e-04	   15.32°	   45.16°
   28   	3.360e+06	2.339e-03	9.399e-05	   82.64°	  112.48°
   29   	3.480e+06	3.690e-03	1.483e-04	    8.67°	   38.51°
   30   	3.600e+06	6.206e-03	2.494e-04	 -134.69°	 -104.85°
Total Harmonic Distortion: 9.574673%(9.574864%)



Measurement: pinphv
  step	AVG(v(+hv)*(-i(vphv)))	FROM	TO
     1	63.557	0	0.008
     2	63.7757	0	0.008
     3	63.6503	0	0.008
     4	63.4516	0	0.008
     5	64.206	0	0.008
     6	65.2565	0	0.008
     7	65.1312	0	0.008
     8	64.7579	0	0.008
     9	64.2846	0	0.008
    10	63.599	0	0.008
    11	62.622	0	0.008
    12	61.3984	0	0.008
    13	60.0226	0	0.008
    14	58.5802	0	0.008
    15	57.177	0	0.008
    16	55.8297	0	0.008
    17	54.5394	0	0.008

Measurement: pinplv
  step	AVG(v(+lv)*(-i(vplv)))	FROM	TO
     1	1.19353	0	0.008
     2	1.11556	0	0.008
     3	1.11274	0	0.008
     4	1.1069	0	0.008
     5	0.786486	0	0.008
     6	0.362525	0	0.008
     7	0.299024	0	0.008
     8	0.298936	0	0.008
     9	0.298875	0	0.008
    10	0.298826	0	0.008
    11	0.298788	0	0.008
    12	0.298759	0	0.008
    13	0.298736	0	0.008
    14	0.298721	0	0.008
    15	0.298706	0	0.008
    16	0.298698	0	0.008
    17	0.298686	0	0.008

Measurement: pinprlv
  step	AVG(v(+rlv)*(-i(vprlv)))	FROM	TO
     1	0.0311651	0	0.008
     2	0.0311699	0	0.008
     3	0.0311759	0	0.008
     4	0.0311834	0	0.008
     5	0.0311929	0	0.008
     6	0.0312058	0	0.008
     7	0.0312247	0	0.008
     8	0.0312429	0	0.008
     9	0.0312561	0	0.008
    10	0.0312695	0	0.008
    11	0.0312825	0	0.008
    12	0.0312992	0	0.008
    13	0.0313057	0	0.008
    14	0.0313095	0	0.008
    15	0.0313133	0	0.008
    16	0.0313183	0	0.008
    17	0.031327	0	0.008

Measurement: pinnhv
  step	AVG(v(-hv)*(-i(vnhv)))	FROM	TO
     1	66.4136	0	0.008
     2	66.3879	0	0.008
     3	66.2596	0	0.008
     4	66.0502	0	0.008
     5	65.7872	0	0.008
     6	65.496	0	0.008
     7	65.1943	0	0.008
     8	64.8658	0	0.008
     9	64.4669	0	0.008
    10	63.8904	0	0.008
    11	63.0404	0	0.008
    12	61.9236	0	0.008
    13	60.6344	0	0.008
    14	59.2418	0	0.008
    15	57.8494	0	0.008
    16	56.478	0	0.008
    17	55.1308	0	0.008

Measurement: pinnlv
  step	AVG(v(-lv)*(-i(vnlv)))	FROM	TO
     1	0.302362	0	0.008
     2	0.301799	0	0.008
     3	0.301286	0	0.008
     4	0.300824	0	0.008
     5	0.300406	0	0.008
     6	0.300042	0	0.008
     7	0.299736	0	0.008
     8	0.299504	0	0.008
     9	0.299355	0	0.008
    10	0.299285	0	0.008
    11	0.29927	0	0.008
    12	0.299289	0	0.008
    13	0.299324	0	0.008
    14	0.29937	0	0.008
    15	0.299417	0	0.008
    16	0.299471	0	0.008
    17	0.299517	0	0.008

Measurement: pinnrlv
  step	AVG(v(-rlv)*(-i(vnrlv)))	FROM	TO
     1	0.0311856	0	0.008
     2	0.0311902	0	0.008
     3	0.0311957	0	0.008
     4	0.0312022	0	0.008
     5	0.03121	0	0.008
     6	0.0312165	0	0.008
     7	0.0312213	0	0.008
     8	0.0312275	0	0.008
     9	0.0312319	0	0.008
    10	0.0312362	0	0.008
    11	0.031241	0	0.008
    12	0.0312437	0	0.008
    13	0.0312527	0	0.008
    14	0.0312581	0	0.008
    15	0.0312566	0	0.008
    16	0.0312568	0	0.008
    17	0.0312526	0	0.008

Measurement: pin
  step	(pinphv + pinplv + pinprlv + pinnhv + pinnlv + pinnrlv)
     1	131.529
     2	131.643
     3	131.386
     4	130.972
     5	131.143
     6	131.478
     7	130.987
     8	130.285
     9	129.412
    10	128.15
    11	126.323
    12	123.983
    13	121.318
    14	118.483
    15	115.687
    16	112.968
    17	110.331

Measurement: eff
  step	(pout / pin)
     1	0.454964
     2	0.454134
     3	0.454489
     4	0.45526
     5	0.453812
     6	0.451507
     7	0.451508
     8	0.451187
     9	0.449375
    10	0.445308
    11	0.438401
    12	0.428497
    13	0.416198
    14	0.402179
    15	0.386759
    16	0.37045
    17	0.353942

Measurement: vrms
  step	RMS(v(out))	FROM	TO
     1	21.8798	0	0.008
     2	21.8694	0	0.008
     3	21.8566	0	0.008
     4	21.8406	0	0.008
     5	21.82	0	0.008
     6	21.7923	0	0.008
     7	21.7516	0	0.008
     8	21.6855	0	0.008
     9	21.5694	0	0.008
    10	21.3666	0	0.008
    11	21.0485	0	0.008
    12	20.6158	0	0.008
    13	20.0982	0	0.008
    14	19.5246	0	0.008
    15	18.9194	0	0.008
    16	18.2974	0	0.008
    17	17.675	0	0.008

Measurement: pout
  step	AVG(v(out)*i(rl))	FROM	TO
     1	59.8409	0	0.008
     2	59.7837	0	0.008
     3	59.7137	0	0.008
     4	59.6263	0	0.008
     5	59.514	0	0.008
     6	59.363	0	0.008
     7	59.1416	0	0.008
     8	58.7828	0	0.008
     9	58.1546	0	0.008
    10	57.0662	0	0.008
    11	55.3801	0	0.008
    12	53.1262	0	0.008
    13	50.4922	0	0.008
    14	47.6512	0	0.008
    15	44.743	0	0.008
    16	41.8492	0	0.008
    17	39.0507	0	0.008

Measurement: vout_max
  step	MAX(v(out))	FROM	TO
     1	30.9577	0	0.008
     2	30.9481	0	0.008
     3	30.9369	0	0.008
     4	30.9239	0	0.008
     5	30.9092	0	0.008
     6	30.8926	0	0.008
     7	30.8741	0	0.008
     8	30.8545	0	0.008
     9	30.8444	0	0.008
    10	30.8031	0	0.008
    11	30.7701	0	0.008
    12	30.7471	0	0.008
    13	30.6936	0	0.008
    14	30.5961	0	0.008
    15	30.4896	0	0.008
    16	30.3306	0	0.008
    17	30.1241	0	0.008


Date: Fri Jul 26 05:27:35 2019
Total elapsed time: 2092.385 seconds.

tnom = 27
temp = 27
method = modified trap
totiter = 1085358
traniter = 1084518
tranpoints = 379586
accept = 287681
rejected = 91905
matrix size = 191
fillins = 297
Thread vector: 65.7/37.9[2] 32.4/17.6[2] 5.8/4.8[2] 8.0/7.1[2]  2592/500
Matrix Compiler1: 40.13 KB object code size  26.6/24.8/[14.3]
Matrix Compiler2: 25.27 KB object code size  12.1/14.4/[12.4]


