Circuit: * REPO\TP_Final\LTSPICE\amplifier_V_2.1\amplifier_V2.1_SR.asc

Direct Newton iteration failed to find .op point.  (Use ".option noopiter" to skip.)
Starting Gmin stepping
Gmin = 10
Gmin = 1.07374
Gmin = 0.115292
Gmin = 0.0123794
Gmin = 0.00132923
Gmin = 0.000142725
Gmin = 1.5325e-005
Gmin = 1.6455e-006
Gmin = 1.76685e-007
Gmin = 1.89714e-008
Gmin = 2.03704e-009
Gmin = 2.18725e-010
Gmin = 2.34854e-011
Gmin = 2.52173e-012
Gmin = 2.70769e-013
Gmin = 0
Gmin stepping succeeded in finding the operating point.


vout_max: v(out)=28.6948 at 0.00185
t1: time=0.00150049 at 0.00150049
t2: time=0.00150099 at 0.00150099
rt: t2-t1=4.95403e-007
sr: (vout_max/(3*rt))*1e-6=19.3074


Date: Thu Jul 25 13:05:25 2019
Total elapsed time: 10.302 seconds.

tnom = 27
temp = 27
method = modified trap
totiter = 52333
traniter = 51493
tranpoints = 25516
accept = 25388
rejected = 128
matrix size = 191
fillins = 297
solver = Alternate
Thread vector: 101.7/76.6[2] 26.4/21.4[2] 6.6/5.9[2] 7.5/12.4[1]  2592/500
Matrix Compiler1: 40.13 KB object code size  25.8/22.6/[13.6]
Matrix Compiler2: 25.27 KB object code size  16.1/19.3/[12.1]


