Circuit: * C:\Users\bakaneko\Facultad\Materias\Circuitos Electrónicos II\TPS\REPO-TPS\Circuitos-2\TP_Final\LTSPICE\amplifier_V_2.1_PSHB\amplifier_V2.1_PSHB_param.asc

Early termination of direct N-R iteration.
Direct Newton iteration failed to find .op point.  (Use ".option noopiter" to skip.)
Starting Gmin stepping
Gmin = 10
Gmin = 1.07374
Gmin = 0.115292
Gmin = 0.0123794
Gmin = 0.00132923
Gmin = 0.000142725
Gmin = 1.5325e-005
Gmin = 1.6455e-006
Gmin = 1.76685e-007
Gmin = 1.89714e-008
Gmin = 2.03704e-009
Gmin = 2.18725e-010
Gmin = 2.34854e-011
Gmin = 2.52173e-012
Gmin = 2.70769e-013
Gmin = 0
Gmin stepping succeeded in finding the operating point.

Ignoring empty pin current: Ix(dz1:1)
Ignoring empty pin current: Ix(dz1:2)
Ignoring empty pin current: Ix(dz2:1)
Ignoring empty pin current: Ix(dz2:2)
Ignoring empty pin current: Ix(dz3:1)
Ignoring empty pin current: Ix(dz3:2)
Ignoring empty pin current: Ix(dz4:1)
Ignoring empty pin current: Ix(dz4:2)
Ignoring empty pin current: Ix(dz1:1)
Ignoring empty pin current: Ix(dz1:2)
Ignoring empty pin current: Ix(dz2:1)
Ignoring empty pin current: Ix(dz2:2)
Ignoring empty pin current: Ix(dz3:1)
Ignoring empty pin current: Ix(dz3:2)
Ignoring empty pin current: Ix(dz4:1)
Ignoring empty pin current: Ix(dz4:2)
.step n=1
N-Period=4
Fourier components of V(out)
DC component:-0.930351

Harmonic	Frequency	 Fourier 	Normalized	 Phase  	Normalized
 Number 	  [Hz]   	Component	 Component	[degree]	Phase [deg]
    1   	1.000e+04	3.482e-05	1.000e+00	 -180.00°	    0.00°
    2   	2.000e+04	1.741e-05	5.000e-01	 -180.00°	   -0.00°
    3   	3.000e+04	1.161e-05	3.333e-01	 -180.00°	   -0.00°
    4   	4.000e+04	8.704e-06	2.500e-01	  180.00°	  360.00°
    5   	5.000e+04	6.963e-06	2.000e-01	  180.00°	  360.00°
    6   	6.000e+04	5.803e-06	1.667e-01	 -180.00°	   -0.00°
    7   	7.000e+04	4.974e-06	1.429e-01	  180.00°	  360.00°
    8   	8.000e+04	4.352e-06	1.250e-01	 -180.00°	   -0.00°
    9   	9.000e+04	3.868e-06	1.111e-01	  180.00°	  360.00°
   10   	1.000e+05	3.482e-06	1.000e-01	 -180.00°	   -0.00°
   11   	1.100e+05	3.165e-06	9.091e-02	  180.00°	  360.00°
   12   	1.200e+05	2.901e-06	8.333e-02	  180.00°	  360.00°
   13   	1.300e+05	2.678e-06	7.693e-02	  180.00°	  360.00°
   14   	1.400e+05	2.487e-06	7.143e-02	  180.00°	  360.00°
   15   	1.500e+05	2.321e-06	6.667e-02	  180.00°	  360.00°
   16   	1.600e+05	2.176e-06	6.250e-02	  180.00°	  360.00°
   17   	1.700e+05	2.048e-06	5.883e-02	 -180.00°	   -0.00°
   18   	1.800e+05	1.934e-06	5.555e-02	 -180.00°	    0.00°
   19   	1.900e+05	1.832e-06	5.263e-02	 -180.00°	    0.00°
   20   	2.000e+05	1.741e-06	5.000e-02	 -180.00°	    0.00°
   21   	2.100e+05	1.658e-06	4.762e-02	  180.00°	  360.00°
   22   	2.200e+05	1.582e-06	4.545e-02	 -180.00°	    0.00°
   23   	2.300e+05	1.514e-06	4.348e-02	  180.00°	  360.00°
   24   	2.400e+05	1.451e-06	4.167e-02	  180.00°	  360.00°
   25   	2.500e+05	1.393e-06	4.000e-02	 -179.99°	    0.01°
   26   	2.600e+05	1.339e-06	3.847e-02	  180.00°	  360.00°
   27   	2.700e+05	1.289e-06	3.704e-02	  180.00°	  360.00°
   28   	2.800e+05	1.244e-06	3.572e-02	 -180.00°	    0.00°
   29   	2.900e+05	1.201e-06	3.448e-02	  180.00°	  359.99°
   30   	3.000e+05	1.161e-06	3.334e-02	 -180.00°	    0.00°
Total Harmonic Distortion: 78.239818%(503.176768%)


.step n=2
N-Period=4
Fourier components of V(out)
DC component:-0.930411

Harmonic	Frequency	 Fourier 	Normalized	 Phase  	Normalized
 Number 	  [Hz]   	Component	 Component	[degree]	Phase [deg]
    1   	1.000e+04	2.829e+00	1.000e+00	   -0.84°	    0.00°
    2   	2.000e+04	1.090e-05	3.852e-06	  -94.23°	  -93.39°
    3   	3.000e+04	1.214e-05	4.291e-06	  142.34°	  143.19°
    4   	4.000e+04	9.190e-06	3.249e-06	  174.90°	  175.75°
    5   	5.000e+04	7.054e-06	2.493e-06	 -178.65°	 -177.81°
    6   	6.000e+04	5.801e-06	2.051e-06	 -179.79°	 -178.94°
    7   	7.000e+04	4.976e-06	1.759e-06	  179.99°	  180.83°
    8   	8.000e+04	4.353e-06	1.539e-06	 -179.99°	 -179.15°
    9   	9.000e+04	3.869e-06	1.368e-06	  180.00°	  180.84°
   10   	1.000e+05	3.482e-06	1.231e-06	  180.00°	  180.84°
   11   	1.100e+05	3.166e-06	1.119e-06	  180.00°	  180.84°
   12   	1.200e+05	2.901e-06	1.026e-06	 -180.00°	 -179.15°
   13   	1.300e+05	2.678e-06	9.467e-07	 -180.00°	 -179.15°
   14   	1.400e+05	2.486e-06	8.790e-07	  180.00°	  180.84°
   15   	1.500e+05	2.320e-06	8.202e-07	 -180.00°	 -179.15°
   16   	1.600e+05	2.175e-06	7.689e-07	  180.00°	  180.84°
   17   	1.700e+05	2.047e-06	7.236e-07	  179.99°	  180.84°
   18   	1.800e+05	1.933e-06	6.833e-07	  180.00°	  180.84°
   19   	1.900e+05	1.831e-06	6.472e-07	  179.99°	  180.84°
   20   	2.000e+05	1.739e-06	6.147e-07	  179.99°	  180.84°
   21   	2.100e+05	1.656e-06	5.854e-07	  179.99°	  180.83°
   22   	2.200e+05	1.580e-06	5.587e-07	  179.99°	  180.83°
   23   	2.300e+05	1.511e-06	5.343e-07	  179.99°	  180.83°
   24   	2.400e+05	1.448e-06	5.120e-07	  179.98°	  180.82°
   25   	2.500e+05	1.390e-06	4.914e-07	  179.98°	  180.82°
   26   	2.600e+05	1.336e-06	4.724e-07	  179.98°	  180.83°
   27   	2.700e+05	1.287e-06	4.548e-07	  179.97°	  180.82°
   28   	2.800e+05	1.240e-06	4.385e-07	  179.97°	  180.81°
   29   	2.900e+05	1.197e-06	4.232e-07	  179.97°	  180.81°
   30   	3.000e+05	1.157e-06	4.091e-07	  179.96°	  180.80°
Total Harmonic Distortion: 0.000852%(0.006138%)

.step n=3
N-Period=4
Fourier components of V(out)
DC component:-0.930437

Harmonic	Frequency	 Fourier 	Normalized	 Phase  	Normalized
 Number 	  [Hz]   	Component	 Component	[degree]	Phase [deg]
    1   	1.000e+04	4.001e+00	1.000e+00	   -0.85°	    0.00°
    2   	2.000e+04	2.976e-05	7.438e-06	  -52.25°	  -51.41°
    3   	3.000e+04	2.339e-05	5.846e-06	  103.56°	  104.40°
    4   	4.000e+04	1.112e-05	2.781e-06	  161.72°	  162.56°
    5   	5.000e+04	7.482e-06	1.870e-06	 -172.72°	 -171.87°
    6   	6.000e+04	5.803e-06	1.451e-06	 -178.57°	 -177.73°
    7   	7.000e+04	4.999e-06	1.249e-06	 -180.00°	 -179.15°
    8   	8.000e+04	4.350e-06	1.087e-06	 -179.81°	 -178.97°
    9   	9.000e+04	3.864e-06	9.658e-07	  179.99°	  180.83°
   10   	1.000e+05	3.484e-06	8.708e-07	  179.96°	  180.81°
   11   	1.100e+05	3.167e-06	7.917e-07	  180.00°	  180.84°
   12   	1.200e+05	2.903e-06	7.256e-07	 -179.99°	 -179.15°
   13   	1.300e+05	2.680e-06	6.698e-07	 -180.00°	 -179.15°
   14   	1.400e+05	2.488e-06	6.219e-07	 -180.00°	 -179.15°
   15   	1.500e+05	2.322e-06	5.804e-07	 -180.00°	 -179.15°
   16   	1.600e+05	2.177e-06	5.441e-07	 -180.00°	 -179.15°
   17   	1.700e+05	2.049e-06	5.121e-07	  180.00°	  180.84°
   18   	1.800e+05	1.935e-06	4.836e-07	 -180.00°	 -179.15°
   19   	1.900e+05	1.833e-06	4.581e-07	 -180.00°	 -179.15°
   20   	2.000e+05	1.741e-06	4.352e-07	 -180.00°	 -179.15°
   21   	2.100e+05	1.658e-06	4.145e-07	  180.00°	  180.84°
   22   	2.200e+05	1.583e-06	3.956e-07	  179.99°	  180.84°
   23   	2.300e+05	1.514e-06	3.784e-07	 -180.00°	 -179.15°
   24   	2.400e+05	1.451e-06	3.626e-07	 -180.00°	 -179.15°
   25   	2.500e+05	1.392e-06	3.480e-07	 -179.99°	 -179.15°
   26   	2.600e+05	1.339e-06	3.346e-07	  180.00°	  180.84°
   27   	2.700e+05	1.289e-06	3.222e-07	  179.99°	  180.84°
   28   	2.800e+05	1.243e-06	3.106e-07	  179.99°	  180.84°
   29   	2.900e+05	1.200e-06	3.000e-07	 -180.00°	 -179.15°
   30   	3.000e+05	1.160e-06	2.899e-07	  179.99°	  180.84°
Total Harmonic Distortion: 0.001058%(0.004440%)

.step n=4
N-Period=4
Fourier components of V(out)
DC component:-0.930561

Harmonic	Frequency	 Fourier 	Normalized	 Phase  	Normalized
 Number 	  [Hz]   	Component	 Component	[degree]	Phase [deg]
    1   	1.000e+04	8.946e+00	1.000e+00	   -0.85°	    0.00°
    2   	2.000e+04	2.422e-04	2.707e-05	  -45.13°	  -44.28°
    3   	3.000e+04	2.907e-04	3.250e-05	   82.87°	   83.71°
    4   	4.000e+04	4.908e-05	5.487e-06	   69.31°	   70.16°
    5   	5.000e+04	2.787e-05	3.115e-06	   27.31°	   28.15°
    6   	6.000e+04	3.588e-05	4.011e-06	  124.94°	  125.79°
    7   	7.000e+04	1.670e-05	1.867e-06	 -139.72°	 -138.87°
    8   	8.000e+04	8.725e-06	9.753e-07	 -166.90°	 -166.05°
    9   	9.000e+04	1.288e-05	1.439e-06	 -179.62°	 -178.78°
   10   	1.000e+05	5.685e-06	6.355e-07	 -131.15°	 -130.31°
   11   	1.100e+05	2.582e-06	2.886e-07	 -178.98°	 -178.13°
   12   	1.200e+05	3.167e-06	3.540e-07	 -167.33°	 -166.48°
   13   	1.300e+05	1.353e-06	1.512e-07	 -151.30°	 -150.45°
   14   	1.400e+05	2.096e-06	2.343e-07	  170.54°	  171.39°
   15   	1.500e+05	2.262e-06	2.529e-07	 -178.46°	 -177.61°
   16   	1.600e+05	1.934e-06	2.162e-07	  175.43°	  176.27°
   17   	1.700e+05	2.185e-06	2.443e-07	  174.83°	  175.68°
   18   	1.800e+05	1.997e-06	2.232e-07	  179.83°	  180.68°
   19   	1.900e+05	1.838e-06	2.055e-07	  178.19°	  179.03°
   20   	2.000e+05	1.803e-06	2.015e-07	  179.95°	  180.79°
   21   	2.100e+05	1.659e-06	1.854e-07	 -178.94°	 -178.09°
   22   	2.200e+05	1.579e-06	1.765e-07	 -179.95°	 -179.10°
   23   	2.300e+05	1.517e-06	1.696e-07	 -179.45°	 -178.60°
   24   	2.400e+05	1.438e-06	1.607e-07	 -179.74°	 -178.90°
   25   	2.500e+05	1.386e-06	1.550e-07	  179.87°	  180.71°
   26   	2.600e+05	1.333e-06	1.491e-07	 -179.97°	 -179.13°
   27   	2.700e+05	1.282e-06	1.433e-07	  179.86°	  180.71°
   28   	2.800e+05	1.239e-06	1.385e-07	  179.86°	  180.71°
   29   	2.900e+05	1.196e-06	1.336e-07	  179.94°	  180.79°
   30   	3.000e+05	1.155e-06	1.291e-07	  179.89°	  180.73°
Total Harmonic Distortion: 0.004304%(0.004694%)

.step n=5
N-Period=4
Fourier components of V(out)
DC component:-0.930408

Harmonic	Frequency	 Fourier 	Normalized	 Phase  	Normalized
 Number 	  [Hz]   	Component	 Component	[degree]	Phase [deg]
    1   	1.000e+04	1.386e+01	1.000e+00	   -0.85°	    0.00°
    2   	2.000e+04	5.333e-04	3.848e-05	  -59.17°	  -58.32°
    3   	3.000e+04	5.906e-04	4.262e-05	   84.09°	   84.94°
    4   	4.000e+04	7.247e-05	5.229e-06	    3.88°	    4.72°
    5   	5.000e+04	1.984e-04	1.432e-05	   73.76°	   74.61°
    6   	6.000e+04	8.783e-05	6.337e-06	   57.10°	   57.95°
    7   	7.000e+04	6.796e-05	4.904e-06	   20.42°	   21.27°
    8   	8.000e+04	8.637e-05	6.232e-06	   79.09°	   79.94°
    9   	9.000e+04	3.101e-05	2.238e-06	    1.30°	    2.14°
   10   	1.000e+05	3.974e-05	2.867e-06	  134.14°	  134.99°
   11   	1.100e+05	3.185e-05	2.298e-06	 -129.87°	 -129.02°
   12   	1.200e+05	2.415e-05	1.743e-06	  -36.18°	  -35.33°
   13   	1.300e+05	3.405e-05	2.457e-06	  130.94°	  131.79°
   14   	1.400e+05	2.634e-05	1.901e-06	 -158.60°	 -157.75°
   15   	1.500e+05	9.545e-06	6.887e-07	 -154.20°	 -153.35°
   16   	1.600e+05	9.870e-06	7.122e-07	  165.60°	  166.45°
   17   	1.700e+05	1.148e-05	8.280e-07	 -122.22°	 -121.37°
   18   	1.800e+05	6.386e-06	4.608e-07	   -7.32°	   -6.47°
   19   	1.900e+05	1.504e-05	1.085e-06	   87.96°	   88.81°
   20   	2.000e+05	1.793e-05	1.294e-06	 -174.18°	 -173.33°
   21   	2.100e+05	1.938e-05	1.399e-06	  -85.11°	  -84.26°
   22   	2.200e+05	1.457e-05	1.052e-06	   11.41°	   12.26°
   23   	2.300e+05	1.294e-05	9.337e-07	  112.66°	  113.51°
   24   	2.400e+05	7.508e-06	5.418e-07	 -158.23°	 -157.39°
   25   	2.500e+05	3.358e-06	2.423e-07	  -97.20°	  -96.35°
   26   	2.600e+05	3.398e-06	2.452e-07	 -151.84°	 -150.99°
   27   	2.700e+05	5.212e-06	3.761e-07	  -58.21°	  -57.36°
   28   	2.800e+05	9.048e-06	6.529e-07	   28.13°	   28.98°
   29   	2.900e+05	1.115e-05	8.048e-07	  118.21°	  119.06°
   30   	3.000e+05	1.497e-05	1.080e-06	 -165.17°	 -164.32°
Total Harmonic Distortion: 0.006063%(0.007648%)

.step n=6
N-Period=4
Fourier components of V(out)
DC component:-0.930789

Harmonic	Frequency	 Fourier 	Normalized	 Phase  	Normalized
 Number 	  [Hz]   	Component	 Component	[degree]	Phase [deg]
    1   	1.000e+04	2.191e+01	1.000e+00	   -0.85°	    0.00°
    2   	2.000e+04	7.367e-04	3.362e-05	  -62.44°	  -61.59°
    3   	3.000e+04	6.665e-04	3.042e-05	   73.31°	   74.16°
    4   	4.000e+04	4.322e-04	1.973e-05	  -71.50°	  -70.65°
    5   	5.000e+04	5.217e-04	2.381e-05	   87.07°	   87.93°
    6   	6.000e+04	1.457e-04	6.649e-06	  -29.46°	  -28.61°
    7   	7.000e+04	2.254e-04	1.028e-05	   75.51°	   76.36°
    8   	8.000e+04	1.449e-04	6.615e-06	   78.04°	   78.89°
    9   	9.000e+04	1.326e-04	6.052e-06	   -6.94°	   -6.09°
   10   	1.000e+05	1.255e-04	5.727e-06	  106.28°	  107.13°
   11   	1.100e+05	9.625e-05	4.393e-06	  -12.04°	  -11.19°
   12   	1.200e+05	5.858e-05	2.674e-06	   60.13°	   60.98°
   13   	1.300e+05	7.149e-05	3.263e-06	   96.50°	   97.35°
   14   	1.400e+05	1.515e-04	6.916e-06	   30.20°	   31.05°
   15   	1.500e+05	5.016e-05	2.289e-06	   77.79°	   78.64°
   16   	1.600e+05	1.183e-04	5.401e-06	   43.00°	   43.85°
   17   	1.700e+05	1.010e-04	4.610e-06	  -24.62°	  -23.77°
   18   	1.800e+05	6.096e-05	2.782e-06	 -168.28°	 -167.43°
   19   	1.900e+05	4.776e-05	2.180e-06	  -23.30°	  -22.45°
   20   	2.000e+05	9.199e-05	4.198e-06	 -136.78°	 -135.92°
   21   	2.100e+05	1.025e-04	4.679e-06	  133.85°	  134.70°
   22   	2.200e+05	7.555e-05	3.448e-06	   -0.68°	    0.17°
   23   	2.300e+05	6.817e-05	3.111e-06	  140.81°	  141.66°
   24   	2.400e+05	9.975e-05	4.552e-06	   23.44°	   24.29°
   25   	2.500e+05	8.414e-05	3.840e-06	  -52.07°	  -51.22°
   26   	2.600e+05	7.882e-05	3.597e-06	 -177.27°	 -176.42°
   27   	2.700e+05	6.622e-05	3.022e-06	  -44.04°	  -43.19°
   28   	2.800e+05	1.331e-04	6.075e-06	 -171.00°	 -170.14°
   29   	2.900e+05	7.698e-05	3.513e-06	  126.28°	  127.14°
   30   	3.000e+05	4.961e-05	2.264e-06	   25.07°	   25.92°
Total Harmonic Distortion: 0.006001%(0.008930%)

.step n=7
N-Period=4
Fourier components of V(out)
DC component:-0.930852

Harmonic	Frequency	 Fourier 	Normalized	 Phase  	Normalized
 Number 	  [Hz]   	Component	 Component	[degree]	Phase [deg]
    1   	1.000e+04	2.367e+01	1.000e+00	   -0.85°	    0.00°
    2   	2.000e+04	8.063e-04	3.407e-05	  -62.00°	  -61.15°
    3   	3.000e+04	6.568e-04	2.775e-05	   71.30°	   72.15°
    4   	4.000e+04	4.962e-04	2.096e-05	  -76.03°	  -75.17°
    5   	5.000e+04	5.410e-04	2.286e-05	   88.27°	   89.12°
    6   	6.000e+04	2.001e-04	8.456e-06	  -48.52°	  -47.67°
    7   	7.000e+04	2.860e-04	1.209e-05	   81.63°	   82.48°
    8   	8.000e+04	1.275e-04	5.386e-06	   62.17°	   63.02°
    9   	9.000e+04	1.236e-04	5.224e-06	    6.73°	    7.58°
   10   	1.000e+05	1.564e-04	6.609e-06	   99.18°	  100.03°
   11   	1.100e+05	1.487e-04	6.283e-06	  -25.85°	  -25.00°
   12   	1.200e+05	7.123e-05	3.010e-06	  109.63°	  110.48°
   13   	1.300e+05	4.029e-05	1.702e-06	   43.08°	   43.93°
   14   	1.400e+05	9.106e-05	3.847e-06	   27.44°	   28.29°
   15   	1.500e+05	1.040e-04	4.394e-06	  107.94°	  108.79°
   16   	1.600e+05	1.742e-04	7.361e-06	   29.51°	   30.36°
   17   	1.700e+05	5.246e-05	2.217e-06	   34.72°	   35.57°
   18   	1.800e+05	9.224e-05	3.897e-06	   44.40°	   45.25°
   19   	1.900e+05	1.279e-04	5.404e-06	  -28.25°	  -27.40°
   20   	2.000e+05	8.231e-05	3.478e-06	 -159.08°	 -158.23°
   21   	2.100e+05	4.256e-05	1.798e-06	  -23.76°	  -22.91°
   22   	2.200e+05	9.327e-05	3.941e-06	 -137.82°	 -136.97°
   23   	2.300e+05	1.132e-04	4.782e-06	  131.25°	  132.10°
   24   	2.400e+05	7.781e-05	3.288e-06	   -0.16°	    0.69°
   25   	2.500e+05	8.456e-05	3.573e-06	  133.51°	  134.36°
   26   	2.600e+05	1.257e-04	5.311e-06	   19.55°	   20.40°
   27   	2.700e+05	7.831e-05	3.309e-06	  -53.97°	  -53.12°
   28   	2.800e+05	3.990e-05	1.686e-06	  169.13°	  169.99°
   29   	2.900e+05	1.071e-04	4.525e-06	  -51.77°	  -50.92°
   30   	3.000e+05	1.583e-04	6.689e-06	 -172.04°	 -171.19°
Total Harmonic Distortion: 0.005987%(0.009468%)

.step n=8
N-Period=4
Fourier components of V(out)
DC component:-0.930911

Harmonic	Frequency	 Fourier 	Normalized	 Phase  	Normalized
 Number 	  [Hz]   	Component	 Component	[degree]	Phase [deg]
    1   	1.000e+04	2.530e+01	1.000e+00	   -0.85°	    0.00°
    2   	2.000e+04	8.745e-04	3.456e-05	  -61.54°	  -60.68°
    3   	3.000e+04	6.570e-04	2.597e-05	   68.34°	   69.20°
    4   	4.000e+04	5.514e-04	2.179e-05	  -79.80°	  -78.94°
    5   	5.000e+04	5.403e-04	2.135e-05	   89.80°	   90.65°
    6   	6.000e+04	2.597e-04	1.026e-05	  -58.79°	  -57.94°
    7   	7.000e+04	3.327e-04	1.315e-05	   85.47°	   86.32°
    8   	8.000e+04	1.061e-04	4.195e-06	   40.72°	   41.57°
    9   	9.000e+04	1.168e-04	4.617e-06	   28.13°	   28.98°
   10   	1.000e+05	1.676e-04	6.624e-06	   90.52°	   91.37°
   11   	1.100e+05	1.732e-04	6.847e-06	  -27.64°	  -26.79°
   12   	1.200e+05	1.099e-04	4.344e-06	  115.94°	  116.79°
   13   	1.300e+05	8.586e-05	3.394e-06	  -21.68°	  -20.83°
   14   	1.400e+05	3.328e-05	1.316e-06	   63.53°	   64.38°
   15   	1.500e+05	9.053e-05	3.578e-06	  108.26°	  109.11°
   16   	1.600e+05	1.429e-04	5.646e-06	   22.63°	   23.48°
   17   	1.700e+05	1.013e-04	4.003e-06	  102.23°	  103.08°
   18   	1.800e+05	1.802e-04	7.123e-06	   29.79°	   30.65°
   19   	1.900e+05	8.428e-05	3.331e-06	   -4.84°	   -3.98°
   20   	2.000e+05	5.008e-05	1.979e-06	   50.53°	   51.38°
   21   	2.100e+05	1.423e-04	5.623e-06	  -31.54°	  -30.69°
   22   	2.200e+05	1.096e-04	4.330e-06	 -154.68°	 -153.83°
   23   	2.300e+05	2.359e-05	9.323e-07	   -3.63°	   -2.78°
   24   	2.400e+05	8.475e-05	3.350e-06	 -138.46°	 -137.61°
   25   	2.500e+05	1.270e-04	5.019e-06	  128.47°	  129.32°
   26   	2.600e+05	9.176e-05	3.627e-06	    4.34°	    5.19°
   27   	2.700e+05	8.515e-05	3.366e-06	  129.95°	  130.81°
   28   	2.800e+05	1.435e-04	5.673e-06	   16.48°	   17.33°
   29   	2.900e+05	8.039e-05	3.177e-06	  -56.17°	  -55.32°
   30   	3.000e+05	1.635e-05	6.462e-07	  145.70°	  146.55°
Total Harmonic Distortion: 0.005934%(0.009889%)

.step n=9
N-Period=4
Fourier components of V(out)
DC component:-0.93096

Harmonic	Frequency	 Fourier 	Normalized	 Phase  	Normalized
 Number 	  [Hz]   	Component	 Component	[degree]	Phase [deg]
    1   	1.000e+04	2.684e+01	1.000e+00	   -0.85°	    0.00°
    2   	2.000e+04	9.475e-04	3.531e-05	  -60.53°	  -59.68°
    3   	3.000e+04	6.735e-04	2.510e-05	   65.01°	   65.86°
    4   	4.000e+04	6.020e-04	2.243e-05	  -83.15°	  -82.30°
    5   	5.000e+04	5.270e-04	1.964e-05	   92.08°	   92.93°
    6   	6.000e+04	3.263e-04	1.216e-05	  -65.19°	  -64.34°
    7   	7.000e+04	3.752e-04	1.398e-05	   87.46°	   88.31°
    8   	8.000e+04	8.655e-05	3.225e-06	   14.00°	   14.85°
    9   	9.000e+04	1.213e-04	4.518e-06	   47.89°	   48.74°
   10   	1.000e+05	1.677e-04	6.251e-06	   81.88°	   82.73°
   11   	1.100e+05	1.762e-04	6.565e-06	  -26.45°	  -25.60°
   12   	1.200e+05	1.424e-04	5.308e-06	  109.64°	  110.49°
   13   	1.300e+05	1.452e-04	5.409e-06	  -35.02°	  -34.16°
   14   	1.400e+05	4.941e-05	1.841e-06	  128.15°	  129.00°
   15   	1.500e+05	4.140e-05	1.543e-06	   88.58°	   89.43°
   16   	1.600e+05	7.738e-05	2.883e-06	   16.12°	   16.97°
   17   	1.700e+05	1.388e-04	5.174e-06	  113.80°	  114.65°
   18   	1.800e+05	1.835e-04	6.837e-06	   22.46°	   23.31°
   19   	1.900e+05	7.407e-05	2.760e-06	   73.94°	   74.79°
   20   	2.000e+05	1.558e-04	5.807e-06	   30.74°	   31.60°
   21   	2.100e+05	1.365e-04	5.086e-06	  -22.66°	  -21.81°
   22   	2.200e+05	1.965e-05	7.322e-07	  142.10°	  142.95°
   23   	2.300e+05	1.413e-04	5.264e-06	  -35.06°	  -34.20°
   24   	2.400e+05	1.271e-04	4.737e-06	 -154.42°	 -153.57°
   25   	2.500e+05	2.426e-05	9.042e-07	   98.15°	   99.00°
   26   	2.600e+05	6.151e-05	2.292e-06	 -132.75°	 -131.89°
   27   	2.700e+05	1.466e-04	5.463e-06	  126.37°	  127.22°
   28   	2.800e+05	1.152e-04	4.294e-06	    5.73°	    6.59°
   29   	2.900e+05	7.744e-05	2.886e-06	  125.06°	  125.92°
   30   	3.000e+05	1.504e-04	5.604e-06	   12.99°	   13.84°
Total Harmonic Distortion: 0.005982%(0.010375%)

.step n=10
N-Period=4
Fourier components of V(out)
DC component:-0.931

Harmonic	Frequency	 Fourier 	Normalized	 Phase  	Normalized
 Number 	  [Hz]   	Component	 Component	[degree]	Phase [deg]
    1   	1.000e+04	2.829e+01	1.000e+00	   -0.85°	    0.00°
    2   	2.000e+04	1.035e-03	3.660e-05	  -59.36°	  -58.50°
    3   	3.000e+04	7.215e-04	2.550e-05	   61.30°	   62.15°
    4   	4.000e+04	6.364e-04	2.250e-05	  -87.74°	  -86.89°
    5   	5.000e+04	4.899e-04	1.732e-05	   96.08°	   96.93°
    6   	6.000e+04	4.035e-04	1.426e-05	  -67.43°	  -66.58°
    7   	7.000e+04	4.226e-04	1.494e-05	   87.87°	   88.73°
    8   	8.000e+04	7.504e-05	2.653e-06	  -19.25°	  -18.40°
    9   	9.000e+04	1.230e-04	4.347e-06	   63.50°	   64.35°
   10   	1.000e+05	1.545e-04	5.463e-06	   70.10°	   70.95°
   11   	1.100e+05	1.656e-04	5.855e-06	  -21.61°	  -20.76°
   12   	1.200e+05	1.668e-04	5.898e-06	  103.87°	  104.72°
   13   	1.300e+05	1.879e-04	6.644e-06	  -39.83°	  -38.98°
   14   	1.400e+05	8.377e-05	2.961e-06	  130.99°	  131.84°
   15   	1.500e+05	4.242e-05	1.500e-06	  -18.11°	  -17.26°
   16   	1.600e+05	1.673e-05	5.913e-07	   28.04°	   28.90°
   17   	1.700e+05	1.285e-04	4.541e-06	  117.80°	  118.66°
   18   	1.800e+05	1.400e-04	4.948e-06	   14.91°	   15.77°
   19   	1.900e+05	1.341e-04	4.740e-06	  106.84°	  107.69°
   20   	2.000e+05	1.991e-04	7.039e-06	   23.15°	   24.00°
   21   	2.100e+05	7.931e-05	2.804e-06	   11.81°	   12.66°
   22   	2.200e+05	1.056e-04	3.734e-06	   31.99°	   32.84°
   23   	2.300e+05	1.763e-04	6.231e-06	  -31.21°	  -30.36°
   24   	2.400e+05	6.746e-05	2.385e-06	 -167.52°	 -166.67°
   25   	2.500e+05	1.143e-04	4.042e-06	  -35.71°	  -34.86°
   26   	2.600e+05	1.318e-04	4.659e-06	 -155.84°	 -154.99°
   27   	2.700e+05	6.695e-05	2.367e-06	  117.55°	  118.41°
   28   	2.800e+05	2.854e-05	1.009e-06	 -109.21°	 -108.35°
   29   	2.900e+05	1.552e-04	5.487e-06	  124.20°	  125.05°
   30   	3.000e+05	1.433e-04	5.066e-06	    7.40°	    8.25°
Total Harmonic Distortion: 0.006072%(0.010682%)

.step n=11
N-Period=4
Fourier components of V(out)
DC component:-0.931008

Harmonic	Frequency	 Fourier 	Normalized	 Phase  	Normalized
 Number 	  [Hz]   	Component	 Component	[degree]	Phase [deg]
    1   	1.000e+04	2.871e+01	1.000e+00	   -0.85°	    0.00°
    2   	2.000e+04	1.068e-03	3.719e-05	  -58.84°	  -57.98°
    3   	3.000e+04	7.447e-04	2.594e-05	   60.30°	   61.16°
    4   	4.000e+04	6.427e-04	2.239e-05	  -89.53°	  -88.68°
    5   	5.000e+04	4.724e-04	1.646e-05	   98.17°	   99.02°
    6   	6.000e+04	4.326e-04	1.507e-05	  -67.33°	  -66.48°
    7   	7.000e+04	4.421e-04	1.540e-05	   87.53°	   88.38°
    8   	8.000e+04	7.082e-05	2.467e-06	  -31.73°	  -30.88°
    9   	9.000e+04	1.210e-04	4.213e-06	   67.23°	   68.08°
   10   	1.000e+05	1.492e-04	5.197e-06	   65.45°	   66.30°
   11   	1.100e+05	1.623e-04	5.654e-06	  -19.18°	  -18.33°
   12   	1.200e+05	1.736e-04	6.046e-06	  102.47°	  103.32°
   13   	1.300e+05	1.974e-04	6.875e-06	  -41.11°	  -40.25°
   14   	1.400e+05	9.209e-05	3.208e-06	  128.66°	  129.52°
   15   	1.500e+05	5.910e-05	2.059e-06	  -29.41°	  -28.55°
   16   	1.600e+05	7.166e-06	2.496e-07	   95.89°	   96.74°
   17   	1.700e+05	1.190e-04	4.147e-06	  118.34°	  119.19°
   18   	1.800e+05	1.221e-04	4.254e-06	   12.20°	   13.06°
   19   	1.900e+05	1.488e-04	5.182e-06	  110.33°	  111.18°
   20   	2.000e+05	1.999e-04	6.962e-06	   21.42°	   22.27°
   21   	2.100e+05	7.078e-05	2.466e-06	   33.02°	   33.88°
   22   	2.200e+05	1.328e-04	4.628e-06	   29.24°	   30.09°
   23   	2.300e+05	1.711e-04	5.961e-06	  -29.32°	  -28.47°
   24   	2.400e+05	3.964e-05	1.381e-06	  179.71°	  180.56°
   25   	2.500e+05	1.440e-04	5.015e-06	  -37.55°	  -36.69°
   26   	2.600e+05	1.341e-04	4.671e-06	 -158.23°	 -157.38°
   27   	2.700e+05	3.175e-05	1.106e-06	  103.17°	  104.02°
   28   	2.800e+05	5.732e-05	1.997e-06	 -139.64°	 -138.79°
   29   	2.900e+05	1.548e-04	5.393e-06	  123.48°	  124.34°
   30   	3.000e+05	1.173e-04	4.087e-06	    3.39°	    4.24°
Total Harmonic Distortion: 0.006122%(0.011067%)

.step n=12
N-Period=4
Fourier components of V(out)
DC component:-0.931019

Harmonic	Frequency	 Fourier 	Normalized	 Phase  	Normalized
 Number 	  [Hz]   	Component	 Component	[degree]	Phase [deg]
    1   	1.000e+04	2.967e+01	1.000e+00	   -0.85°	    0.00°
    2   	2.000e+04	1.165e-03	3.926e-05	  -57.64°	  -56.79°
    3   	3.000e+04	8.338e-04	2.810e-05	   57.49°	   58.34°
    4   	4.000e+04	6.465e-04	2.179e-05	  -96.08°	  -95.23°
    5   	5.000e+04	4.092e-04	1.379e-05	  105.95°	  106.80°
    6   	6.000e+04	5.162e-04	1.740e-05	  -65.18°	  -64.33°
    7   	7.000e+04	5.041e-04	1.699e-05	   86.25°	   87.11°
    8   	8.000e+04	6.022e-05	2.029e-06	  -69.60°	  -68.75°
    9   	9.000e+04	1.026e-04	3.457e-06	   81.31°	   82.17°
   10   	1.000e+05	1.411e-04	4.757e-06	   48.69°	   49.54°
   11   	1.100e+05	1.534e-04	5.170e-06	  -10.05°	   -9.20°
   12   	1.200e+05	1.874e-04	6.316e-06	  100.67°	  101.52°
   13   	1.300e+05	2.169e-04	7.310e-06	  -43.55°	  -42.70°
   14   	1.400e+05	1.082e-04	3.647e-06	  123.04°	  123.89°
   15   	1.500e+05	1.033e-04	3.482e-06	  -38.79°	  -37.94°
   16   	1.600e+05	3.473e-05	1.170e-06	  162.45°	  163.30°
   17   	1.700e+05	8.789e-05	2.962e-06	  119.61°	  120.46°
   18   	1.800e+05	7.901e-05	2.663e-06	    3.34°	    4.20°
   19   	1.900e+05	1.726e-04	5.817e-06	  116.55°	  117.40°
   20   	2.000e+05	1.865e-04	6.284e-06	   16.93°	   17.79°
   21   	2.100e+05	9.005e-05	3.035e-06	   81.72°	   82.57°
   22   	2.200e+05	1.805e-04	6.083e-06	   24.52°	   25.37°
   23   	2.300e+05	1.414e-04	4.766e-06	  -20.89°	  -20.04°
   24   	2.400e+05	4.335e-05	1.461e-06	   46.73°	   47.59°
   25   	2.500e+05	1.923e-04	6.480e-06	  -37.21°	  -36.35°
   26   	2.600e+05	1.097e-04	3.697e-06	 -164.07°	 -163.21°
   27   	2.700e+05	6.607e-05	2.227e-06	  -33.37°	  -32.51°
   28   	2.800e+05	1.160e-04	3.908e-06	 -155.87°	 -155.02°
   29   	2.900e+05	1.173e-04	3.954e-06	  120.57°	  121.42°
   30   	3.000e+05	3.664e-05	1.235e-06	  -24.32°	  -23.47°
Total Harmonic Distortion: 0.006345%(0.011166%)

.step n=13
N-Period=4
Fourier components of V(out)
DC component:-0.930994

Harmonic	Frequency	 Fourier 	Normalized	 Phase  	Normalized
 Number 	  [Hz]   	Component	 Component	[degree]	Phase [deg]
    1   	1.000e+04	3.099e+01	1.000e+00	   -0.85°	    0.00°
    2   	2.000e+04	1.394e-03	4.498e-05	  -55.26°	  -54.41°
    3   	3.000e+04	1.082e-03	3.491e-05	   54.44°	   55.29°
    4   	4.000e+04	6.425e-04	2.073e-05	 -115.30°	 -114.44°
    5   	5.000e+04	2.969e-04	9.581e-06	  142.65°	  143.50°
    6   	6.000e+04	7.248e-04	2.339e-05	  -58.08°	  -57.22°
    7   	7.000e+04	6.788e-04	2.191e-05	   81.78°	   82.63°
    8   	8.000e+04	1.188e-04	3.834e-06	 -155.06°	 -154.21°
    9   	9.000e+04	6.087e-05	1.964e-06	  151.94°	  152.79°
   10   	1.000e+05	1.748e-04	5.640e-06	   12.64°	   13.49°
   11   	1.100e+05	1.636e-04	5.278e-06	   12.95°	   13.81°
   12   	1.200e+05	2.108e-04	6.803e-06	  102.43°	  103.28°
   13   	1.300e+05	2.356e-04	7.602e-06	  -49.15°	  -48.30°
   14   	1.400e+05	1.212e-04	3.911e-06	  112.23°	  113.08°
   15   	1.500e+05	1.593e-04	5.139e-06	  -41.45°	  -40.59°
   16   	1.600e+05	7.237e-05	2.335e-06	  158.02°	  158.88°
   17   	1.700e+05	2.981e-05	9.620e-07	  117.53°	  118.39°
   18   	1.800e+05	2.503e-05	8.076e-07	  -33.31°	  -32.45°
   19   	1.900e+05	1.757e-04	5.669e-06	  121.69°	  122.55°
   20   	2.000e+05	1.439e-04	4.642e-06	    9.42°	   10.27°
   21   	2.100e+05	1.531e-04	4.941e-06	  108.71°	  109.56°
   22   	2.200e+05	2.077e-04	6.703e-06	   19.15°	   20.00°
   23   	2.300e+05	7.991e-05	2.579e-06	   14.01°	   14.86°
   24   	2.400e+05	1.337e-04	4.314e-06	   26.56°	   27.42°
   25   	2.500e+05	1.974e-04	6.371e-06	  -33.03°	  -32.18°
   26   	2.600e+05	3.689e-05	1.190e-06	  171.94°	  172.80°
   27   	2.700e+05	1.733e-04	5.593e-06	  -40.21°	  -39.36°
   28   	2.800e+05	1.399e-04	4.514e-06	 -163.62°	 -162.76°
   29   	2.900e+05	1.841e-05	5.942e-07	   38.95°	   39.81°
   30   	3.000e+05	8.619e-05	2.781e-06	 -155.18°	 -154.33°
Total Harmonic Distortion: 0.007261%(0.012212%)



Measurement: pinphv
  step	AVG(v(+hv)*(-ix(x1:+hv)))	FROM	TO
     1	13.8645	0	0.03
     2	13.8687	0	0.03
     3	13.8734	0	0.03
     4	13.919	0	0.03
     5	13.9927	0	0.03
     6	44.4341	0	0.03
     7	49.0784	0	0.03
     8	53.1997	0	0.03
     9	56.943	0	0.03
    10	60.3931	0	0.03
    11	61.3756	0	0.03
    12	63.6161	0	0.03
    13	66.6351	0	0.03

Measurement: pinplv
  step	AVG(v(+lv)*(-ix(x1:+lv)))	FROM	TO
     1	4.07412	0	0.03
     2	4.26167	0	0.03
     3	4.46501	0	0.03
     4	6.2989	0	0.03
     5	8.98681	0	0.03
     6	4.48381	0	0.03
     7	4.11807	0	0.03
     8	3.84172	0	0.03
     9	3.62312	0	0.03
    10	3.44458	0	0.03
    11	3.39729	0	0.03
    12	3.29485	0	0.03
    13	3.16765	0	0.03

Measurement: pinprlv
  step	AVG(v(+rlv)*(-ix(x2:+r5v)))	FROM	TO
     1	0.0311756	0	0.03
     2	0.0311756	0	0.03
     3	0.0311756	0	0.03
     4	0.0311755	0	0.03
     5	0.0311754	0	0.03
     6	0.0311767	0	0.03
     7	0.0311768	0	0.03
     8	0.031177	0	0.03
     9	0.0311771	0	0.03
    10	0.0311772	0	0.03
    11	0.0311772	0	0.03
    12	0.0311773	0	0.03
    13	0.0311774	0	0.03

Measurement: pinnhv
  step	AVG(v(-hv)*(-ix(x1:-hv)))	FROM	TO
     1	12.8099	0	0.03
     2	12.8162	0	0.03
     3	12.8229	0	0.03
     4	12.8855	0	0.03
     5	22.9157	0	0.03
     6	50.4017	0	0.03
     7	54.9224	0	0.03
     8	59.0298	0	0.03
     9	62.826	0	0.03
    10	66.3647	0	0.03
    11	67.3778	0	0.03
    12	69.695	0	0.03
    13	72.8289	0	0.03

Measurement: pinnlv
  step	AVG(v(-lv)*(-ix(x1:-lv)))	FROM	TO
     1	6.11326	0	0.03
     2	6.29346	0	0.03
     3	6.49091	0	0.03
     4	8.27839	0	0.03
     5	7.94056	0	0.03
     6	4.29405	0	0.03
     7	3.96234	0	0.03
     8	3.68574	0	0.03
     9	3.44574	0	0.03
    10	3.23445	0	0.03
    11	3.17604	0	0.03
    12	3.04589	0	0.03
    13	2.87733	0	0.03

Measurement: pinnrlv
  step	AVG(v(-rlv)*(-ix(x2:-r5v)))	FROM	TO
     1	0.0312968	0	0.03
     2	0.0312964	0	0.03
     3	0.031296	0	0.03
     4	0.0312921	0	0.03
     5	0.0312932	0	0.03
     6	0.0313029	0	0.03
     7	0.0313038	0	0.03
     8	0.0313045	0	0.03
     9	0.0313051	0	0.03
    10	0.0313056	0	0.03
    11	0.0313057	0	0.03
    12	0.0313061	0	0.03
    13	0.0313065	0	0.03

Measurement: pin
  step	(pinphv + pinplv + pinprlv + pinnhv + pinnlv + pinnrlv)
     1	36.9242
     2	37.3025
     3	37.7147
     4	41.4443
     5	53.8982
     6	103.676
     7	112.144
     8	119.819
     9	126.9
    10	133.499
    11	135.389
    12	139.714
    13	145.571

Measurement: eff
  step	(pout / pin)
     1	0.00303647
     2	0.0164137
     3	0.0294958
     4	0.123386
     5	0.224786
     6	0.290511
     7	0.313168
     8	0.334838
     9	0.355576
    10	0.375459
    11	0.381244
    12	0.394627
    13	0.413058

Measurement: vrms
  step	RMS(v(out))	FROM	TO
     1	0.947077	0	0.03
     2	2.21318	0	0.03
     3	2.98319	0	0.03
     4	6.39603	0	0.03
     5	9.84502	0	0.03
     6	15.5226	0	0.03
     7	16.7618	0	0.03
     8	17.9154	0	0.03
     9	18.9995	0	0.03
    10	20.0247	0	0.03
    11	20.3207	0	0.03
    12	21.0019	0	0.03
    13	21.9325	0	0.03

Measurement: pout
  step	AVG(v(out)*i(rl))	FROM	TO
     1	0.112119	0	0.03
     2	0.612271	0	0.03
     3	1.11242	0	0.03
     4	5.11365	0	0.03
     5	12.1155	0	0.03
     6	30.119	0	0.03
     7	35.1198	0	0.03
     8	40.1202	0	0.03
     9	45.1226	0	0.03
    10	50.1236	0	0.03
    11	51.6164	0	0.03
    12	55.1351	0	0.03
    13	60.1295	0	0.03

Measurement: vout_max
  step	MAX(v(out))	FROM	TO
     1	-0.930132	0	0.03
     2	1.89862	0	0.03
     3	3.07036	0	0.03
     4	8.01549	0	0.03
     5	12.9287	0	0.03
     6	20.9812	0	0.03
     7	22.7366	0	0.03
     8	24.3705	0	0.03
     9	25.9056	0	0.03
    10	27.3571	0	0.03
    11	27.7762	0	0.03
    12	28.7405	0	0.03
    13	30.058	0	0.03

Measurement: ieq1_max
  step	MAX(-ix(q1:3))	FROM	TO
     1	2.22341e-010	0	0.03
     2	1.71977e-007	0	0.03
     3	2.41668e-007	0	0.03
     4	5.34469e-007	0	0.03
     5	9.06878e-005	0	0.03
     6	1.29661	0	0.03
     7	1.40528	0	0.03
     8	1.5064	0	0.03
     9	1.60139	0	0.03
    10	1.6912	0	0.03
    11	1.71713	0	0.03
    12	1.77678	0	0.03
    13	1.85826	0	0.03

Measurement: ieq1_rms
  step	RMS(-ix(q1:3))	FROM	TO
     1	4.28539e-011	0	0.03
     2	2.33399e-009	0	0.03
     3	3.80089e-009	0	0.03
     4	1.5858e-008	0	0.03
     5	4.12157e-006	0	0.03
     6	0.584638	0	0.03
     7	0.648882	0	0.03
     8	0.706284	0	0.03
     9	0.758812	0	0.03
    10	0.807575	0	0.03
    11	0.821523	0	0.03
    12	0.853433	0	0.03
    13	0.896659	0	0.03

Measurement: vceq1_max
  step	MAX(v(+hv, eq1))	FROM	TO
     1	37.7577	0	0.03
     2	37.7864	0	0.03
     3	37.8076	0	0.03
     4	38.0185	0	0.03
     5	38.4282	0	0.03
     6	37.3865	0	0.03
     7	37.2983	0	0.03
     8	37.2238	0	0.03
     9	37.1592	0	0.03
    10	37.1029	0	0.03
    11	37.0875	0	0.03
    12	37.0529	0	0.03
    13	37.0073	0	0.03

Measurement: pq1_max
  step	MAX(v(+hv,eq1)*(-ix(q1:3))+v(eq7,eq1)*ix(q1:1))	FROM	TO
     1	8.01007e-009	0	0.03
     2	6.13225e-006	0	0.03
     3	8.61727e-006	0	0.03
     4	1.90579e-005	0	0.03
     5	0.0034831	0	0.03
     6	40.6956	0	0.03
     7	41.5123	0	0.03
     8	41.917	0	0.03
     9	42.0031	0	0.03
    10	41.9719	0	0.03
    11	41.9597	0	0.03
    12	41.93	0	0.03
    13	41.8873	0	0.03

Measurement: pq1_avg
  step	AVG(v(+hv,eq1)*(-ix(q1:3))+v(eq7,eq1)*ix(q1:1))	FROM	TO
     1	1.52423e-010	0	0.03
     2	1.50693e-010	0	0.03
     3	1.11037e-010	0	0.03
     4	-4.28379e-010	0	0.03
     5	3.64088e-009	0	0.03
     6	9.59994	0	0.03
     7	10.6157	0	0.03
     8	11.3923	0	0.03
     9	11.9926	0	0.03
    10	12.4553	0	0.03
    11	12.5709	0	0.03
    12	12.8075	0	0.03
    13	13.0661	0	0.03

Measurement: ieq2_max
  step	MAX(ix(q2:3))	FROM	TO
     1	1.02104e-006	0	0.03
     2	1.7127e-010	0	0.03
     3	1.02104e-006	0	0.03
     4	1.54587e-009	0	0.03
     5	0.914046	0	0.03
     6	1.4111	0	0.03
     7	1.51933	0	0.03
     8	1.62001	0	0.03
     9	1.71456	0	0.03
    10	1.80392	0	0.03
    11	1.8297	0	0.03
    12	1.889	0	0.03
    13	1.9699	0	0.03

Measurement: ieq2_rms
  step	RMS(ix(q2:3))	FROM	TO
     1	4.39347e-010	0	0.03
     2	7.4253e-011	0	0.03
     3	4.43399e-010	0	0.03
     4	2.70769e-010	0	0.03
     5	0.286349	0	0.03
     6	0.669413	0	0.03
     7	0.730999	0	0.03
     8	0.787025	0	0.03
     9	0.838838	0	0.03
    10	0.887207	0	0.03
    11	0.901074	0	0.03
    12	0.932828	0	0.03
    13	0.975871	0	0.03

Measurement: vecq2_max
  step	MAX(-v(-hv, eq2))	FROM	TO
     1	38.0173	0	0.03
     2	38.0527	0	0.03
     3	38.0804	0	0.03
     4	38.3359	0	0.03
     5	37.9627	0	0.03
     6	37.2937	0	0.03
     7	37.2126	0	0.03
     8	37.1409	0	0.03
     9	37.076	0	0.03
    10	37.0166	0	0.03
    11	36.9998	0	0.03
    12	36.9616	0	0.03
    13	36.9107	0	0.03

Measurement: pq2_max
  step	MAX(-v(-hv,eq2)*(ix(q2:3))-v(eq8,eq2)*(-ix(q2:1)))	FROM	TO
     1	3.6738e-005	0	0.03
     2	6.15318e-009	0	0.03
     3	3.6738e-005	0	0.03
     4	5.72794e-008	0	0.03
     5	34.5846	0	0.03
     6	41.3521	0	0.03
     7	41.7311	0	0.03
     8	41.7499	0	0.03
     9	41.685	0	0.03
    10	41.6217	0	0.03
    11	41.6034	0	0.03
    12	41.5615	0	0.03
    13	41.5046	0	0.03

Measurement: pq2_avg
  step	AVG(-v(-hv,eq2)*(ix(q2:3))-v(eq8,eq2)*(-ix(q2:1)))	FROM	TO
     1	4.67929e-010	0	0.03
     2	4.66434e-010	0	0.03
     3	4.97116e-010	0	0.03
     4	7.43186e-010	0	0.03
     5	3.57982	0	0.03
     6	11.2938	0	0.03
     7	12.1198	0	0.03
     8	12.7568	0	0.03
     9	13.249	0	0.03
    10	13.622	0	0.03
    11	13.7132	0	0.03
    12	13.895	0	0.03
    13	14.0791	0	0.03

Measurement: ieq3_max
  step	MAX(-ix(q3:3))	FROM	TO
     1	0.281375	0	0.03
     2	0.465214	0	0.03
     3	0.549546	0	0.03
     4	1.01193	0	0.03
     5	1.61769	0	0.03
     6	2.62484	0	0.03
     7	2.8444	0	0.03
     8	3.04875	0	0.03
     9	3.24075	0	0.03
    10	3.42229	0	0.03
    11	3.47471	0	0.03
    12	3.59532	0	0.03
    13	3.7601	0	0.03

Measurement: ieq3_rms
  step	RMS(-ix(q3:3))	FROM	TO
     1	0.232789	0	0.03
     2	0.268815	0	0.03
     3	0.301543	0	0.03
     4	0.518688	0	0.03
     5	0.806275	0	0.03
     6	1.30241	0	0.03
     7	1.41153	0	0.03
     8	1.51321	0	0.03
     9	1.60884	0	0.03
    10	1.69931	0	0.03
    11	1.72544	0	0.03
    12	1.78558	0	0.03
    13	1.86777	0	0.03

Measurement: vceq3_max
  step	MAX(v(mid_pos,eq3))	FROM	TO
     1	18.2067	0	0.03
     2	21.1137	0	0.03
     3	22.3124	0	0.03
     4	27.2536	0	0.03
     5	32.1359	0	0.03
     6	40.2159	0	0.03
     7	41.9906	0	0.03
     8	43.6393	0	0.03
     9	45.1859	0	0.03
    10	46.6466	0	0.03
    11	47.068	0	0.03
    12	48.0374	0	0.03
    13	49.3604	0	0.03

Measurement: pq3_max
  step	MAX(v(mid_pos,eq3)*(-ix(q3:3))+v(eq9,eq3)*ix(q3:1))	FROM	TO
     1	5.19594	0	0.03
     2	7.30296	0	0.03
     3	7.99058	0	0.03
     4	9.68315	0	0.03
     5	9.77093	0	0.03
     6	10.4112	0	0.03
     7	10.5591	0	0.03
     8	10.6977	0	0.03
     9	10.8291	0	0.03
    10	10.9549	0	0.03
    11	10.9915	0	0.03
    12	11.0762	0	0.03
    13	11.1927	0	0.03

Measurement: pq3_avg
  step	AVG(v(mid_pos,eq3)*(-ix(q3:3))+v(eq9,eq3)*ix(q3:1))	FROM	TO
     1	4.19208	0	0.03
     2	4.16776	0	0.03
     3	4.16598	0	0.03
     4	4.41786	0	0.03
     5	4.11719	0	0.03
     6	3.89747	0	0.03
     7	3.99127	0	0.03
     8	4.09465	0	0.03
     9	4.20281	0	0.03
    10	4.31301	0	0.03
    11	4.34607	0	0.03
    12	4.42404	0	0.03
    13	4.53443	0	0.03

Measurement: ieq4_max
  step	MAX(ix(q4:3))	FROM	TO
     1	0.397761	0	0.03
     2	0.598286	0	0.03
     3	0.693999	0	0.03
     4	1.24001	0	0.03
     5	1.85463	0	0.03
     6	2.86183	0	0.03
     7	3.08139	0	0.03
     8	3.28571	0	0.03
     9	3.47769	0	0.03
    10	3.65918	0	0.03
    11	3.71156	0	0.03
    12	3.83204	0	0.03
    13	3.99643	0	0.03

Measurement: ieq4_rms
  step	RMS(ix(q4:3))	FROM	TO
     1	0.348666	0	0.03
     2	0.384126	0	0.03
     3	0.418722	0	0.03
     4	0.659775	0	0.03
     5	0.954478	0	0.03
     6	1.45242	0	0.03
     7	1.56167	0	0.03
     8	1.66345	0	0.03
     9	1.75914	0	0.03
    10	1.84965	0	0.03
    11	1.87579	0	0.03
    12	1.93595	0	0.03
    13	2.01811	0	0.03

Measurement: vecq4_max
  step	MAX(v(eq4,mid_neg))	FROM	TO
     1	16.1189	0	0.03
     2	18.9886	0	0.03
     3	20.1708	0	0.03
     4	25.1808	0	0.03
     5	30.0892	0	0.03
     6	38.3095	0	0.03
     7	40.0874	0	0.03
     8	41.7403	0	0.03
     9	43.2923	0	0.03
    10	44.7588	0	0.03
    11	45.1821	0	0.03
    12	46.1558	0	0.03
    13	47.4856	0	0.03

Measurement: pq4_max
  step	MAX(-v(mid_neg,eq4)*(ix(q4:3))-v(eq10,eq4)*(-ix(q4:1)))	FROM	TO
     1	6.56067	0	0.03
     2	8.2111	0	0.03
     3	8.71305	0	0.03
     4	9.55716	0	0.03
     5	9.72869	0	0.03
     6	10.3971	0	0.03
     7	10.5411	0	0.03
     8	10.679	0	0.03
     9	10.8118	0	0.03
    10	10.94	0	0.03
    11	10.9776	0	0.03
    12	11.3678	0	0.03
    13	11.9663	0	0.03

Measurement: pq4_avg
  step	AVG(-v(mid_neg,eq4)*(ix(q4:3))-v(eq10,eq4)*(-ix(q4:1)))	FROM	TO
     1	5.66072	0	0.03
     2	5.56803	0	0.03
     3	5.48771	0	0.03
     4	5.03365	0	0.03
     5	4.16813	0	0.03
     6	4.2342	0	0.03
     7	4.34245	0	0.03
     8	4.45956	0	0.03
     9	4.58252	0	0.03
    10	4.70973	0	0.03
    11	4.74848	0	0.03
    12	4.84149	0	0.03
    13	4.97941	0	0.03

Measurement: ieq5_max
  step	MAX(-ix(q5:3))	FROM	TO
     1	2.22341e-010	0	0.03
     2	1.71977e-007	0	0.03
     3	2.41668e-007	0	0.03
     4	5.34469e-007	0	0.03
     5	9.06878e-005	0	0.03
     6	1.29661	0	0.03
     7	1.40528	0	0.03
     8	1.5064	0	0.03
     9	1.60139	0	0.03
    10	1.6912	0	0.03
    11	1.71713	0	0.03
    12	1.77678	0	0.03
    13	1.85826	0	0.03

Measurement: ieq5_rms
  step	RMS(-ix(q5:3))	FROM	TO
     1	4.28539e-011	0	0.03
     2	2.33399e-009	0	0.03
     3	3.80089e-009	0	0.03
     4	1.5858e-008	0	0.03
     5	4.12157e-006	0	0.03
     6	0.584638	0	0.03
     7	0.648882	0	0.03
     8	0.706284	0	0.03
     9	0.758812	0	0.03
    10	0.807575	0	0.03
    11	0.821523	0	0.03
    12	0.853433	0	0.03
    13	0.896659	0	0.03

Measurement: vceq5_max
  step	MAX(v(+hv,eq5))	FROM	TO
     1	37.7577	0	0.03
     2	37.7864	0	0.03
     3	37.8076	0	0.03
     4	38.0185	0	0.03
     5	38.4282	0	0.03
     6	37.3865	0	0.03
     7	37.2983	0	0.03
     8	37.2238	0	0.03
     9	37.1592	0	0.03
    10	37.1029	0	0.03
    11	37.0875	0	0.03
    12	37.0529	0	0.03
    13	37.0073	0	0.03

Measurement: pq5_max
  step	MAX(v(+hv,eq5)*(-ix(q5:3))+v(eq7,eq5)*ix(q5:1))	FROM	TO
     1	8.01007e-009	0	0.03
     2	6.13225e-006	0	0.03
     3	8.61727e-006	0	0.03
     4	1.90579e-005	0	0.03
     5	0.0034831	0	0.03
     6	40.6956	0	0.03
     7	41.5123	0	0.03
     8	41.917	0	0.03
     9	42.0031	0	0.03
    10	41.9719	0	0.03
    11	41.9597	0	0.03
    12	41.93	0	0.03
    13	41.8873	0	0.03

Measurement: pq5_avg
  step	AVG(v(+hv,eq5)*(-ix(q5:3))+v(eq7,eq5)*ix(q5:1))	FROM	TO
     1	1.52423e-010	0	0.03
     2	1.50693e-010	0	0.03
     3	1.11037e-010	0	0.03
     4	-4.28379e-010	0	0.03
     5	3.64088e-009	0	0.03
     6	9.59994	0	0.03
     7	10.6157	0	0.03
     8	11.3923	0	0.03
     9	11.9926	0	0.03
    10	12.4553	0	0.03
    11	12.5709	0	0.03
    12	12.8075	0	0.03
    13	13.0661	0	0.03

Measurement: ieq6_max
  step	MAX(ix(q6:3))	FROM	TO
     1	1.02104e-006	0	0.03
     2	1.71418e-010	0	0.03
     3	1.02104e-006	0	0.03
     4	1.5458e-009	0	0.03
     5	0.914046	0	0.03
     6	1.4111	0	0.03
     7	1.51933	0	0.03
     8	1.62001	0	0.03
     9	1.71456	0	0.03
    10	1.80392	0	0.03
    11	1.8297	0	0.03
    12	1.889	0	0.03
    13	1.9699	0	0.03

Measurement: ieq6_rms
  step	RMS(ix(q6:3))	FROM	TO
     1	4.3935e-010	0	0.03
     2	7.42669e-011	0	0.03
     3	4.43401e-010	0	0.03
     4	2.70772e-010	0	0.03
     5	0.286349	0	0.03
     6	0.669413	0	0.03
     7	0.730999	0	0.03
     8	0.787025	0	0.03
     9	0.838838	0	0.03
    10	0.887207	0	0.03
    11	0.901074	0	0.03
    12	0.932828	0	0.03
    13	0.975871	0	0.03

Measurement: vecq6_max
  step	MAX(v(eq6,-hv))	FROM	TO
     1	38.0173	0	0.03
     2	38.0527	0	0.03
     3	38.0804	0	0.03
     4	38.3359	0	0.03
     5	37.9627	0	0.03
     6	37.2937	0	0.03
     7	37.2126	0	0.03
     8	37.1409	0	0.03
     9	37.076	0	0.03
    10	37.0166	0	0.03
    11	36.9998	0	0.03
    12	36.9616	0	0.03
    13	36.9107	0	0.03

Measurement: pq6_max
  step	MAX(-v(-hv,eq6)*(ix(q6:3))-v(eq8,eq6)*(-ix(q6:1)))	FROM	TO
     1	3.6738e-005	0	0.03
     2	6.15877e-009	0	0.03
     3	3.6738e-005	0	0.03
     4	5.72847e-008	0	0.03
     5	34.5846	0	0.03
     6	41.3521	0	0.03
     7	41.7311	0	0.03
     8	41.7499	0	0.03
     9	41.685	0	0.03
    10	41.6217	0	0.03
    11	41.6034	0	0.03
    12	41.5615	0	0.03
    13	41.5046	0	0.03

Measurement: pq6_avg
  step	AVG(-v(-hv,eq6)*(ix(q6:3))-v(eq8,eq6)*(-ix(q6:1)))	FROM	TO
     1	4.70966e-010	0	0.03
     2	4.69526e-010	0	0.03
     3	5.00176e-010	0	0.03
     4	7.45576e-010	0	0.03
     5	3.57982	0	0.03
     6	11.2938	0	0.03
     7	12.1198	0	0.03
     8	12.7568	0	0.03
     9	13.249	0	0.03
    10	13.622	0	0.03
    11	13.7132	0	0.03
    12	13.895	0	0.03
    13	14.0791	0	0.03

Measurement: ieq7_max
  step	MAX(1000*(-ie(q7)))	FROM	TO
     1	0.000278799	0	0.03
     2	0.000823333	0	0.03
     3	0.00107917	0	0.03
     4	0.00198326	0	0.03
     5	2.41402	0	0.03
     6	32.7783	0	0.03
     7	35.6952	0	0.03
     8	38.3731	0	0.03
     9	40.5785	0	0.03
    10	42.6657	0	0.03
    11	43.2955	0	0.03
    12	44.6942	0	0.03
    13	46.5035	0	0.03

Measurement: ieq7_rms
  step	RMS(1000*(-ie(q7)))	FROM	TO
     1	3.56633e-005	0	0.03
     2	5.76856e-005	0	0.03
     3	7.13317e-005	0	0.03
     4	0.000121532	0	0.03
     5	0.105695	0	0.03
     6	12.2177	0	0.03
     7	13.3942	0	0.03
     8	14.4455	0	0.03
     9	15.4132	0	0.03
    10	16.3205	0	0.03
    11	16.5821	0	0.03
    12	17.1846	0	0.03
    13	18.0106	0	0.03

Measurement: vceq7_max
  step	MAX(v(+hv,eq7))	FROM	TO
     1	37.7577	0	0.03
     2	37.7864	0	0.03
     3	37.8076	0	0.03
     4	38.0185	0	0.03
     5	38.4275	0	0.03
     6	37.3802	0	0.03
     7	37.2916	0	0.03
     8	37.217	0	0.03
     9	37.1518	0	0.03
    10	37.0954	0	0.03
    11	37.0799	0	0.03
    12	37.0449	0	0.03
    13	36.999	0	0.03

Measurement: pq7_max
  step	MAX(v(+hv,eq7)*ic(q7)+v(bq7,eq7)*ib(q7))	FROM	TO
     1	6.18519e-006	0	0.03
     2	2.15833e-005	0	0.03
     3	2.92556e-005	0	0.03
     4	5.75636e-005	0	0.03
     5	0.0908067	0	0.03
     6	1.17257	0	0.03
     7	1.27222	0	0.03
     8	1.36444	0	0.03
     9	1.44569	0	0.03
    10	1.52911	0	0.03
    11	1.53412	0	0.03
    12	1.58121	0	0.03
    13	1.64673	0	0.03

Measurement: pq7_avg
  step	AVG(1000*v(+hv,eq7)*ic(q7)+v(bq7,eq7)*ib(q7))	FROM	TO
     1	0.000146975	0	0.03
     2	0.000183026	0	0.03
     3	0.000206299	0	0.03
     4	0.000272294	0	0.03
     5	0.362093	0	0.03
     6	193.014	0	0.03
     7	210.261	0	0.03
     8	223.07	0	0.03
     9	232.691	0	0.03
    10	239.891	0	0.03
    11	241.65	0	0.03
    12	245.174	0	0.03
    13	248.85	0	0.03

Measurement: ieq8_max
  step	MAX(1000*ie(q8))	FROM	TO
     1	0.000583046	0	0.03
     2	0.00181568	0	0.03
     3	0.00253736	0	0.03
     4	0.00555251	0	0.03
     5	24.201	0	0.03
     6	54.5959	0	0.03
     7	59.6763	0	0.03
     8	63.8817	0	0.03
     9	67.8944	0	0.03
    10	71.8364	0	0.03
    11	72.8157	0	0.03
    12	75.0899	0	0.03
    13	78.3097	0	0.03

Measurement: ieq8_rms
  step	RMS(1000*ie(q8))	FROM	TO
     1	6.27071e-005	0	0.03
     2	0.000103413	0	0.03
     3	0.000133103	0	0.03
     4	0.000252183	0	0.03
     5	5.26122	0	0.03
     6	11.3276	0	0.03
     7	12.3563	0	0.03
     8	13.3333	0	0.03
     9	14.2782	0	0.03
    10	15.2033	0	0.03
    11	15.4767	0	0.03
    12	16.1191	0	0.03
    13	17.0297	0	0.03

Measurement: vecq8_max
  step	MAX(v(eq8,-hv))	FROM	TO
     1	38.0173	0	0.03
     2	38.0527	0	0.03
     3	38.0804	0	0.03
     4	38.3359	0	0.03
     5	37.9546	0	0.03
     6	37.2798	0	0.03
     7	37.1973	0	0.03
     8	37.1242	0	0.03
     9	37.0581	0	0.03
    10	36.9976	0	0.03
    11	36.9805	0	0.03
    12	36.9416	0	0.03
    13	36.8898	0	0.03

Measurement: pq8_max
  step	MAX(v(-hv,eq8)*ic(q8)+v(bq8,eq8)*ib(q8))	FROM	TO
     1	1.81144e-005	0	0.03
     2	5.99311e-005	0	0.03
     3	8.49513e-005	0	0.03
     4	0.000191608	0	0.03
     5	0.895359	0	0.03
     6	1.97627	0	0.03
     7	2.13834	0	0.03
     8	2.28311	0	0.03
     9	2.43527	0	0.03
    10	2.5711	0	0.03
    11	2.59536	0	0.03
    12	2.67897	0	0.03
    13	2.797	0	0.03

Measurement: pq8_avg
  step	AVG(1000*v(-hv,eq8)*ic(q8)+v(bq8,eq8)*ib(q8))	FROM	TO
     1	0.000346832	0	0.03
     2	0.000437281	0	0.03
     3	0.000512061	0	0.03
     4	0.000816976	0	0.03
     5	67.1621	0	0.03
     6	183.541	0	0.03
     7	196.095	0	0.03
     8	206.14	0	0.03
     9	214.29	0	0.03
    10	220.862	0	0.03
    11	222.553	0	0.03
    12	226.096	0	0.03
    13	230.114	0	0.03

Measurement: ieq9_max
  step	MAX(1000*(-ie(q9)))	FROM	TO
     1	9.43435	0	0.03
     2	10.927	0	0.03
     3	11.6179	0	0.03
     4	15.5075	0	0.03
     5	21.3667	0	0.03
     6	30.1813	0	0.03
     7	32.2293	0	0.03
     8	34.1684	0	0.03
     9	36.0208	0	0.03
    10	37.8004	0	0.03
    11	38.3193	0	0.03
    12	39.5225	0	0.03
    13	41.186	0	0.03

Measurement: ieq9_rms
  step	RMS(1000*(-ie(q9)))	FROM	TO
     1	8.86425	0	0.03
     2	8.99541	0	0.03
     3	9.13413	0	0.03
     4	10.3913	0	0.03
     5	12.5181	0	0.03
     6	16.6157	0	0.03
     7	17.5562	0	0.03
     8	18.4485	0	0.03
     9	19.3017	0	0.03
    10	20.1216	0	0.03
    11	20.3606	0	0.03
    12	20.9145	0	0.03
    13	21.679	0	0.03

Measurement: vceq9_max
  step	MAX(v(+hv,eq9))	FROM	TO
     1	55.0244	0	0.03
     2	57.9005	0	0.03
     3	59.0946	0	0.03
     4	64.1655	0	0.03
     5	69.2217	0	0.03
     6	77.0636	0	0.03
     7	78.8074	0	0.03
     8	80.4359	0	0.03
     9	81.9703	0	0.03
    10	83.4258	0	0.03
    11	83.8476	0	0.03
    12	84.8221	0	0.03
    13	86.1695	0	0.03

Measurement: pq9_max
  step	MAX(v(+hv,eq9)*ic(q9)+v(bq9,eq9)*ib(q9))	FROM	TO
     1	0.513559	0	0.03
     2	0.563897	0	0.03
     3	0.585848	0	0.03
     4	0.704181	0	0.03
     5	0.864425	0	0.03
     6	1.07332	0	0.03
     7	1.10224	0	0.03
     8	1.12824	0	0.03
     9	1.15164	0	0.03
    10	1.17343	0	0.03
    11	1.17934	0	0.03
    12	1.19357	0	0.03
    13	1.21183	0	0.03

Measurement: pq9_avg
  step	AVG(1000*v(+hv,eq9)*ic(q9)+v(bq9,eq9)*ib(q9))	FROM	TO
     1	476.739	0	0.03
     2	479.299	0	0.03
     3	482.359	0	0.03
     4	515.275	0	0.03
     5	565.114	0	0.03
     6	622.749	0	0.03
     7	631.4	0	0.03
     8	638.027	0	0.03
     9	642.933	0	0.03
    10	646.286	0	0.03
    11	646.996	0	0.03
    12	648.122	0	0.03
    13	648.227	0	0.03

Measurement: ieq10_max
  step	MAX(1000*ie(q10))	FROM	TO
     1	9.64593	0	0.03
     2	11.2661	0	0.03
     3	12.1039	0	0.03
     4	17.7363	0	0.03
     5	25.7681	0	0.03
     6	37.9207	0	0.03
     7	40.8008	0	0.03
     8	43.5598	0	0.03
     9	46.2185	0	0.03
    10	48.7796	0	0.03
    11	49.5234	0	0.03
    12	51.2299	0	0.03
    13	53.4926	0	0.03

Measurement: ieq10_rms
  step	RMS(1000*ie(q10))	FROM	TO
     1	9.15287	0	0.03
     2	9.32998	0	0.03
     3	9.5191	0	0.03
     4	11.2821	0	0.03
     5	14.4843	0	0.03
     6	20.1852	0	0.03
     7	21.515	0	0.03
     8	22.7851	0	0.03
     9	24.007	0	0.03
    10	25.1866	0	0.03
    11	25.531	0	0.03
    12	26.3282	0	0.03
    13	27.4193	0	0.03

Measurement: vecq10_max
  step	MAX(v(eq10,-hv))	FROM	TO
     1	53.1585	0	0.03
     2	56.0321	0	0.03
     3	57.2235	0	0.03
     4	62.2729	0	0.03
     5	67.1675	0	0.03
     6	75.0699	0	0.03
     7	76.8157	0	0.03
     8	78.4428	0	0.03
     9	79.9733	0	0.03
    10	81.422	0	0.03
    11	81.8405	0	0.03
    12	82.8041	0	0.03
    13	84.1218	0	0.03

Measurement: pq10_max
  step	MAX(v(-hv,eq10)*ic(q10)+v(bq10,eq10)*ib(q10))	FROM	TO
     1	0.509377	0	0.03
     2	0.563332	0	0.03
     3	0.590827	0	0.03
     4	0.771288	0	0.03
     5	0.996331	0	0.03
     6	1.14176	0	0.03
     7	1.15483	0	0.03
     8	1.16223	0	0.03
     9	1.16671	0	0.03
    10	1.1698	0	0.03
    11	1.17056	0	0.03
    12	1.17288	0	0.03
    13	1.18522	0	0.03

Measurement: pq10_avg
  step	AVG(1000*v(-hv,eq10)*ic(q10)+v(bq10,eq10)*ib(q10))	FROM	TO
     1	477.69	0	0.03
     2	482.08	0	0.03
     3	486.864	0	0.03
     4	531.716	0	0.03
     5	600.568	0	0.03
     6	678.357	0	0.03
     7	690.225	0	0.03
     8	699.416	0	0.03
     9	706.336	0	0.03
    10	711.269	0	0.03
    11	712.387	0	0.03
    12	714.407	0	0.03
    13	715.818	0	0.03

Measurement: ieq15_max
  step	MAX(1000*ie(q15))	FROM	TO
     1	23.2409	0	0.03
     2	23.6441	0	0.03
     3	23.8109	0	0.03
     4	24.5116	0	0.03
     5	25.1652	0	0.03
     6	26.0581	0	0.03
     7	26.2645	0	0.03
     8	26.4568	0	0.03
     9	26.6374	0	0.03
    10	26.808	0	0.03
    11	26.8572	0	0.03
    12	27.0231	0	0.03
    13	27.2539	0	0.03

Measurement: ieq15_rms
  step	RMS(1000*ie(q15))	FROM	TO
     1	22.0664	0	0.03
     2	22.0668	0	0.03
     3	22.0671	0	0.03
     4	22.0693	0	0.03
     5	22.0468	0	0.03
     6	21.9316	0	0.03
     7	21.9137	0	0.03
     8	21.8975	0	0.03
     9	21.8821	0	0.03
    10	21.8665	0	0.03
    11	21.8617	0	0.03
    12	21.8491	0	0.03
    13	21.8266	0	0.03

Measurement: vecq15_max
  step	MAX(v(eq15,cq15))	FROM	TO
     1	50.0633	0	0.03
     2	52.9464	0	0.03
     3	54.1434	0	0.03
     4	59.2231	0	0.03
     5	64.2909	0	0.03
     6	71.9746	0	0.03
     7	73.6966	0	0.03
     8	75.3052	0	0.03
     9	76.8219	0	0.03
    10	78.2625	0	0.03
    11	78.6803	0	0.03
    12	79.6467	0	0.03
    13	80.9871	0	0.03

Measurement: pq15_max
  step	MAX(v(cq15,eq15)*ic(q15)+v(bq15,eq15)*ib(q15))	FROM	TO
     1	1.15858	0	0.03
     2	1.22638	0	0.03
     3	1.25461	0	0.03
     4	1.37504	0	0.03
     5	1.49209	0	0.03
     6	1.6569	0	0.03
     7	1.69484	0	0.03
     8	1.7302	0	0.03
     9	1.76338	0	0.03
    10	1.79464	0	0.03
    11	1.80363	0	0.03
    12	1.82423	0	0.03
    13	1.85208	0	0.03

Measurement: pq15_avg
  step	AVG(1000*v(cq15,eq15)*ic(q15)+v(bq15,eq15)*ib(q15))	FROM	TO
     1	1037.07	0	0.03
     2	1036.97	0	0.03
     3	1036.86	0	0.03
     4	1035.9	0	0.03
     5	1032.76	0	0.03
     6	1012.57	0	0.03
     7	1008.68	0	0.03
     8	1004.98	0	0.03
     9	1001.38	0	0.03
    10	997.776	0	0.03
    11	996.683	0	0.03
    12	994.023	0	0.03
    13	989.85	0	0.03

Measurement: ieq16_max
  step	MAX(1000*(-ie(q16)))	FROM	TO
     1	23.2922	0	0.03
     2	23.7338	0	0.03
     3	23.9168	0	0.03
     4	24.686	0	0.03
     5	25.4092	0	0.03
     6	26.4174	0	0.03
     7	26.6494	0	0.03
     8	26.8657	0	0.03
     9	27.069	0	0.03
    10	27.2953	0	0.03
    11	27.3777	0	0.03
    12	27.5528	0	0.03
    13	27.7901	0	0.03

Measurement: ieq16_rms
  step	RMS(1000*(-ie(q16)))	FROM	TO
     1	22.1177	0	0.03
     2	22.1183	0	0.03
     3	22.1188	0	0.03
     4	22.1229	0	0.03
     5	22.1149	0	0.03
     6	21.9727	0	0.03
     7	21.9534	0	0.03
     8	21.9367	0	0.03
     9	21.9221	0	0.03
    10	21.9099	0	0.03
    11	21.907	0	0.03
    12	21.9016	0	0.03
    13	21.9009	0	0.03

Measurement: vceq16_max
  step	MAX(-v(eq16,cq16))	FROM	TO
     1	48.1919	0	0.03
     2	51.0673	0	0.03
     3	52.2603	0	0.03
     4	57.3141	0	0.03
     5	62.1533	0	0.03
     6	69.9096	0	0.03
     7	71.6324	0	0.03
     8	73.239	0	0.03
     9	74.7511	0	0.03
    10	76.1831	0	0.03
    11	76.597	0	0.03
    12	77.5501	0	0.03
    13	78.8537	0	0.03

Measurement: pq16_max
  step	MAX(v(cq16,eq16)*ic(q16)+v(bq16,eq16)*ib(q16))	FROM	TO
     1	1.11355	0	0.03
     2	1.18418	0	0.03
     3	1.21363	0	0.03
     4	1.33899	0	0.03
     5	1.45795	0	0.03
     6	1.62926	0	0.03
     7	1.66869	0	0.03
     8	1.70527	0	0.03
     9	1.73946	0	0.03
    10	1.77158	0	0.03
    11	1.78081	0	0.03
    12	1.80196	0	0.03
    13	1.83064	0	0.03

Measurement: pq16_avg
  step	AVG(1000*v(cq16,eq16)*ic(q16)+v(bq16,eq16)*ib(q16))	FROM	TO
     1	999.505	0	0.03
     2	999.425	0	0.03
     3	999.348	0	0.03
     4	998.745	0	0.03
     5	994.256	0	0.03
     6	976.143	0	0.03
     7	972.886	0	0.03
     8	969.826	0	0.03
     9	966.895	0	0.03
    10	964.061	0	0.03
    11	963.23	0	0.03
    12	961.296	0	0.03
    13	958.608	0	0.03

Measurement: ieq17_max
  step	MAX(1000*ie(q17))	FROM	TO
     1	3.87353	0	0.03
     2	3.911	0	0.03
     3	3.9265	0	0.03
     4	3.99151	0	0.03
     5	4.05223	0	0.03
     6	4.13728	0	0.03
     7	4.15673	0	0.03
     8	4.17484	0	0.03
     9	4.19183	0	0.03
    10	4.20785	0	0.03
    11	4.21247	0	0.03
    12	4.22637	0	0.03
    13	4.25914	0	0.03

Measurement: ieq17_rms
  step	RMS(1000*ie(q17))	FROM	TO
     1	3.77197	0	0.03
     2	3.77206	0	0.03
     3	3.77214	0	0.03
     4	3.77281	0	0.03
     5	3.77169	0	0.03
     6	3.76532	0	0.03
     7	3.76484	0	0.03
     8	3.76456	0	0.03
     9	3.76442	0	0.03
    10	3.76434	0	0.03
    11	3.76431	0	0.03
    12	3.76417	0	0.03
    13	3.76361	0	0.03

Measurement: vecq17_max
  step	MAX(v(eq17))	FROM	TO
     1	30.5763	0	0.03
     2	30.5898	0	0.03
     3	30.5954	0	0.03
     4	30.619	0	0.03
     5	30.6439	0	0.03
     6	30.0668	0	0.03
     7	29.9869	0	0.03
     8	29.9173	0	0.03
     9	29.8549	0	0.03
    10	29.7982	0	0.03
    11	29.7822	0	0.03
    12	29.7458	0	0.03
    13	29.6973	0	0.03

Measurement: pq17_max
  step	MAX(1000*(-v(eq17)*ic(q17)+v(pos_diff_out,eq17)*ib(q17)))	FROM	TO
     1	117.512	0	0.03
     2	118.587	0	0.03
     3	119.035	0	0.03
     4	120.912	0	0.03
     5	122.663	0	0.03
     6	122.55	0	0.03
     7	122.727	0	0.03
     8	122.909	0	0.03
     9	123.09	0	0.03
    10	123.267	0	0.03
    11	123.318	0	0.03
    12	123.439	0	0.03
    13	123.606	0	0.03

Measurement: pq17_avg
  step	AVG(1000*(-v(eq17)*ic(q17)+v(pos_diff_out,eq17)*ib(q17)))	FROM	TO
     1	103.441	0	0.03
     2	103.44	0	0.03
     3	103.44	0	0.03
     4	103.435	0	0.03
     5	103.366	0	0.03
     6	101.647	0	0.03
     7	101.391	0	0.03
     8	101.166	0	0.03
     9	100.962	0	0.03
    10	100.774	0	0.03
    11	100.72	0	0.03
    12	100.595	0	0.03
    13	100.414	0	0.03

Measurement: ieq18_max
  step	MAX(1000*(-ie(q18)))	FROM	TO
     1	3.8484	0	0.03
     2	3.8917	0	0.03
     3	3.9097	0	0.03
     4	3.98589	0	0.03
     5	4.05946	0	0.03
     6	4.185	0	0.03
     7	4.22404	0	0.03
     8	4.25708	0	0.03
     9	4.28958	0	0.03
    10	4.31907	0	0.03
    11	4.32679	0	0.03
    12	4.34596	0	0.03
    13	4.37163	0	0.03

Measurement: ieq18_rms
  step	RMS(1000*(-ie(q18)))	FROM	TO
     1	3.74471	0	0.03
     2	3.74488	0	0.03
     3	3.74505	0	0.03
     4	3.74635	0	0.03
     5	3.74783	0	0.03
     6	3.74107	0	0.03
     7	3.74113	0	0.03
     8	3.74153	0	0.03
     9	3.74223	0	0.03
    10	3.74328	0	0.03
    11	3.74368	0	0.03
    12	3.74487	0	0.03
    13	3.74743	0	0.03

Measurement: vceq18_max
  step	MAX(-v(eq18))	FROM	TO
     1	30.6563	0	0.03
     2	30.671	0	0.03
     3	30.6771	0	0.03
     4	30.7021	0	0.03
     5	30.5162	0	0.03
     6	30.021	0	0.03
     7	29.9459	0	0.03
     8	29.8785	0	0.03
     9	29.817	0	0.03
    10	29.7602	0	0.03
    11	29.744	0	0.03
    12	29.7071	0	0.03
    13	29.6576	0	0.03

Measurement: pq18_max
  step	MAX(1000*(-v(eq18)*ic(q18)+v(neg_diff_out,eq18)*ib(q18)))	FROM	TO
     1	117.173	0	0.03
     2	118.427	0	0.03
     3	118.951	0	0.03
     4	121.166	0	0.03
     5	122.445	0	0.03
     6	123.775	0	0.03
     7	124.447	0	0.03
     8	125.064	0	0.03
     9	125.649	0	0.03
    10	126.164	0	0.03
    11	126.304	0	0.03
    12	126.626	0	0.03
    13	127.069	0	0.03

Measurement: pq18_avg
  step	AVG(1000*(-v(eq18)*ic(q18)+v(neg_diff_out,eq18)*ib(q18)))	FROM	TO
     1	104.134	0	0.03
     2	104.135	0	0.03
     3	104.136	0	0.03
     4	104.141	0	0.03
     5	103.659	0	0.03
     6	102.055	0	0.03
     7	101.814	0	0.03
     8	101.6	0	0.03
     9	101.409	0	0.03
    10	101.239	0	0.03
    11	101.192	0	0.03
    12	101.092	0	0.03
    13	100.977	0	0.03

Measurement: ieq19_max
  step	MAX(1000*(-ie(q19)))	FROM	TO
     1	22.2171	0	0.03
     2	22.6348	0	0.03
     3	22.8077	0	0.03
     4	23.5344	0	0.03
     5	24.2147	0	0.03
     6	25.1527	0	0.03
     7	25.369	0	0.03
     8	25.5708	0	0.03
     9	25.7603	0	0.03
    10	25.9393	0	0.03
    11	25.9909	0	0.03
    12	26.1096	0	0.03
    13	26.2715	0	0.03

Measurement: ieq19_rms
  step	RMS(1000*(-ie(q19)))	FROM	TO
     1	21.0511	0	0.03
     2	21.0509	0	0.03
     3	21.0506	0	0.03
     4	21.0466	0	0.03
     5	21.013	0	0.03
     6	20.8085	0	0.03
     7	20.7732	0	0.03
     8	20.7399	0	0.03
     9	20.7074	0	0.03
    10	20.6745	0	0.03
    11	20.6644	0	0.03
    12	20.6392	0	0.03
    13	20.5982	0	0.03

Measurement: vceq19_max
  step	MAX(v(vbem1,vbemid))	FROM	TO
     1	1.349	0	0.03
     2	1.35591	0	0.03
     3	1.35878	0	0.03
     4	1.37089	0	0.03
     5	1.38229	0	0.03
     6	1.39814	0	0.03
     7	1.40181	0	0.03
     8	1.40524	0	0.03
     9	1.40847	0	0.03
    10	1.41153	0	0.03
    11	1.41241	0	0.03
    12	1.41444	0	0.03
    13	1.41722	0	0.03

Measurement: pq19_max
  step	MAX(1000*v(vbem1,vbemid)*ic(q19)+v(bq19,vbemid)*ib(q19))	FROM	TO
     1	29.264	0	0.03
     2	29.9648	0	0.03
     3	30.2568	0	0.03
     4	31.495	0	0.03
     5	32.6711	0	0.03
     6	34.3198	0	0.03
     7	34.7045	0	0.03
     8	35.0648	0	0.03
     9	35.4046	0	0.03
    10	35.7268	0	0.03
    11	35.82	0	0.03
    12	36.0345	0	0.03
    13	36.3279	0	0.03

Measurement: pq19_avg
  step	AVG(1000*v(vbem1,vbemid)*ic(q19)+v(bq19,vbemid)*ib(q19))	FROM	TO
     1	27.3005	0	0.03
     2	27.2983	0	0.03
     3	27.2959	0	0.03
     4	27.2745	0	0.03
     5	27.194	0	0.03
     6	26.7967	0	0.03
     7	26.721	0	0.03
     8	26.6485	0	0.03
     9	26.5772	0	0.03
    10	26.5051	0	0.03
    11	26.4831	0	0.03
    12	26.429	0	0.03
    13	26.3431	0	0.03

Measurement: ieq20_max
  step	MAX(1000*ie(q20))	FROM	TO
     1	22.2171	0	0.03
     2	22.6348	0	0.03
     3	22.8077	0	0.03
     4	23.5344	0	0.03
     5	24.2147	0	0.03
     6	25.1527	0	0.03
     7	25.369	0	0.03
     8	25.5708	0	0.03
     9	25.7603	0	0.03
    10	25.9393	0	0.03
    11	25.9909	0	0.03
    12	26.1096	0	0.03
    13	26.2715	0	0.03

Measurement: ieq20_rms
  step	RMS(1000*ie(q20))	FROM	TO
     1	21.0511	0	0.03
     2	21.0509	0	0.03
     3	21.0506	0	0.03
     4	21.0466	0	0.03
     5	21.013	0	0.03
     6	20.8085	0	0.03
     7	20.7732	0	0.03
     8	20.7399	0	0.03
     9	20.7074	0	0.03
    10	20.6745	0	0.03
    11	20.6644	0	0.03
    12	20.6392	0	0.03
    13	20.5982	0	0.03

Measurement: vecq20_max
  step	MAX(+v(vbem2,vbemid))	FROM	TO
     1	-1.23554	0	0.03
     2	-1.23211	0	0.03
     3	-1.23038	0	0.03
     4	-1.22284	0	0.03
     5	-1.21534	0	0.03
     6	-1.20301	0	0.03
     7	-1.20032	0	0.03
     8	-1.19781	0	0.03
     9	-1.19544	0	0.03
    10	-1.1932	0	0.03
    11	-1.19255	0	0.03
    12	-1.19106	0	0.03
    13	-1.18902	0	0.03

Measurement: pq20_max
  step	MAX(1000*v(vbem2,vbemid)*ic(q20)+v(bq20,vbemid)*ib(q20))	FROM	TO
     1	28.3242	0	0.03
     2	28.9597	0	0.03
     3	29.224	0	0.03
     4	30.3422	0	0.03
     5	31.4	0	0.03
     6	32.8761	0	0.03
     7	33.2195	0	0.03
     8	33.5407	0	0.03
     9	33.8433	0	0.03
    10	34.1299	0	0.03
    11	34.2127	0	0.03
    12	34.4034	0	0.03
    13	34.6639	0	0.03

Measurement: pq20_avg
  step	AVG(1000*v(vbem2,vbemid)*ic(q20)+v(bq20,vbemid)*ib(q20))	FROM	TO
     1	26.5277	0	0.03
     2	26.5253	0	0.03
     3	26.5227	0	0.03
     4	26.5003	0	0.03
     5	26.4215	0	0.03
     6	26.0455	0	0.03
     7	25.9726	0	0.03
     8	25.9026	0	0.03
     9	25.8336	0	0.03
    10	25.764	0	0.03
    11	25.7427	0	0.03
    12	25.6907	0	0.03
    13	25.6083	0	0.03

Measurement: ieq31_max
  step	MAX(1000*(-ie(q31)))	FROM	TO
     1	1.56478	0	0.03
     2	1.58194	0	0.03
     3	1.58904	0	0.03
     4	1.619	0	0.03
     5	1.64888	0	0.03
     6	1.69778	0	0.03
     7	1.70849	0	0.03
     8	1.71846	0	0.03
     9	1.72924	0	0.03
    10	1.74209	0	0.03
    11	1.74557	0	0.03
    12	1.75384	0	0.03
    13	1.76518	0	0.03

Measurement: ieq31_rms
  step	RMS(1000*(-ie(q31)))	FROM	TO
     1	1.56463	0	0.03
     2	1.56468	0	0.03
     3	1.56472	0	0.03
     4	1.56506	0	0.03
     5	1.56577	0	0.03
     6	1.56733	0	0.03
     7	1.56778	0	0.03
     8	1.56822	0	0.03
     9	1.56867	0	0.03
    10	1.56912	0	0.03
    11	1.56926	0	0.03
    12	1.56958	0	0.03
    13	1.57006	0	0.03

Measurement: vceq31_max
  step	MAX(v(cq31,cq33))	FROM	TO
     1	24.7942	0	0.03
     2	25.0646	0	0.03
     3	25.1766	0	0.03
     4	25.65	0	0.03
     5	26.1205	0	0.03
     6	26.2845	0	0.03
     7	26.3674	0	0.03
     8	26.4492	0	0.03
     9	26.5292	0	0.03
    10	26.607	0	0.03
    11	26.6298	0	0.03
    12	26.6828	0	0.03
    13	26.7563	0	0.03

Measurement: pq31_max
  step	MAX(1000*v(cq31,cq33)*ic(q31)+v(+rlv,cq33)*ib(q31))	FROM	TO
     1	38.4467	0	0.03
     2	38.4447	0	0.03
     3	38.4446	0	0.03
     4	38.4434	0	0.03
     5	38.4423	0	0.03
     6	37.4818	0	0.03
     7	37.3448	0	0.03
     8	37.2247	0	0.03
     9	37.1168	0	0.03
    10	37.0183	0	0.03
    11	36.9904	0	0.03
    12	36.9272	0	0.03
    13	36.8426	0	0.03

Measurement: pq31_avg
  step	AVG(1000*v(cq31,cq33)*ic(q31)+v(+rlv,cq33)*ib(q31))	FROM	TO
     1	33.7411	0	0.03
     2	33.7388	0	0.03
     3	33.7364	0	0.03
     4	33.7173	0	0.03
     5	33.6843	0	0.03
     6	33.0109	0	0.03
     7	32.8994	0	0.03
     8	32.7983	0	0.03
     9	32.7045	0	0.03
    10	32.6166	0	0.03
    11	32.5913	0	0.03
    12	32.533	0	0.03
    13	32.4535	0	0.03

Measurement: ieq32_max
  step	MAX(1000*ie(q32))	FROM	TO
     1	1.56304	0	0.03
     2	1.58277	0	0.03
     3	1.59097	0	0.03
     4	1.62572	0	0.03
     5	1.66037	0	0.03
     6	1.71746	0	0.03
     7	1.73016	0	0.03
     8	1.74211	0	0.03
     9	1.75343	0	0.03
    10	1.7642	0	0.03
    11	1.76731	0	0.03
    12	1.77452	0	0.03
    13	1.7844	0	0.03

Measurement: ieq32_rms
  step	RMS(1000*ie(q32))	FROM	TO
     1	1.56225	0	0.03
     2	1.56231	0	0.03
     3	1.56237	0	0.03
     4	1.56286	0	0.03
     5	1.56363	0	0.03
     6	1.56589	0	0.03
     7	1.56651	0	0.03
     8	1.56713	0	0.03
     9	1.56774	0	0.03
    10	1.56835	0	0.03
    11	1.56853	0	0.03
    12	1.56895	0	0.03
    13	1.56953	0	0.03

Measurement: vecq32_max
  step	MAX(-v(cq32,cq32))	FROM	TO
     1	-0	0	0.03
     2	-0	0	0.03
     3	-0	0	0.03
     4	-0	0	0.03
     5	-0	0	0.03
     6	-0	0	0.03
     7	-0	0	0.03
     8	-0	0	0.03
     9	-0	0	0.03
    10	-0	0	0.03
    11	-0	0	0.03
    12	-0	0	0.03
    13	-0	0	0.03

Measurement: pq32_max
  step	MAX(1000*v(cq32,cq34)*ic(q32)+v(-rlv,cq34)*ib(q32))	FROM	TO
     1	38.3388	0	0.03
     2	38.3374	0	0.03
     3	38.3371	0	0.03
     4	38.3354	0	0.03
     5	38.0065	0	0.03
     6	37.1719	0	0.03
     7	37.0418	0	0.03
     8	36.9249	0	0.03
     9	36.818	0	0.03
    10	36.7192	0	0.03
    11	36.6911	0	0.03
    12	36.6269	0	0.03
    13	36.5406	0	0.03

Measurement: pq32_avg
  step	AVG(1000*v(cq32,cq34)*ic(q32)+v(-rlv,cq34)*ib(q32))	FROM	TO
     1	34.0839	0	0.03
     2	34.0809	0	0.03
     3	34.0778	0	0.03
     4	34.0532	0	0.03
     5	33.8197	0	0.03
     6	33.1853	0	0.03
     7	33.0709	0	0.03
     8	32.9647	0	0.03
     9	32.8645	0	0.03
    10	32.7692	0	0.03
    11	32.7416	0	0.03
    12	32.6779	0	0.03
    13	32.5903	0	0.03

Measurement: ieq33_max
  step	MAX(1000*(-ie(q33)))	FROM	TO
     1	1.57737	0	0.03
     2	1.59463	0	0.03
     3	1.60178	0	0.03
     4	1.63193	0	0.03
     5	1.66199	0	0.03
     6	1.71121	0	0.03
     7	1.72198	0	0.03
     8	1.73202	0	0.03
     9	1.74299	0	0.03
    10	1.75595	0	0.03
    11	1.75943	0	0.03
    12	1.76782	0	0.03
    13	1.77914	0	0.03

Measurement: ieq33_rms
  step	RMS(1000*(-ie(q33)))	FROM	TO
     1	1.57722	0	0.03
     2	1.57726	0	0.03
     3	1.5773	0	0.03
     4	1.57765	0	0.03
     5	1.57836	0	0.03
     6	1.57993	0	0.03
     7	1.58038	0	0.03
     8	1.58082	0	0.03
     9	1.58127	0	0.03
    10	1.58173	0	0.03
    11	1.58186	0	0.03
    12	1.58219	0	0.03
    13	1.58267	0	0.03

Measurement: vceq33_max
  step	MAX(v(cq33,cq35))	FROM	TO
     1	4.96425	0	0.03
     2	5.06282	0	0.03
     3	5.10364	0	0.03
     4	5.27593	0	0.03
     5	5.44709	0	0.03
     6	5.72712	0	0.03
     7	5.7882	0	0.03
     8	5.84506	0	0.03
     9	5.89848	0	0.03
    10	5.94899	0	0.03
    11	5.96357	0	0.03
    12	5.99713	0	0.03
    13	6.04296	0	0.03

Measurement: pq33_max
  step	MAX(1000*v(cq33,cq35)*ic(q33)+v(fin,cq35)*ib(q33))	FROM	TO
     1	7.76791	0	0.03
     2	7.93829	0	0.03
     3	8.00928	0	0.03
     4	8.31226	0	0.03
     5	8.61816	0	0.03
     6	9.15947	0	0.03
     7	9.25737	0	0.03
     8	9.34235	0	0.03
     9	9.44135	0	0.03
    10	9.53554	0	0.03
    11	9.56282	0	0.03
    12	9.6258	0	0.03
    13	9.71232	0	0.03

Measurement: pq33_avg
  step	AVG(1000*v(cq33,cq35)*ic(q33)+v(fin,cq35)*ib(q33))	FROM	TO
     1	7.76281	0	0.03
     2	7.76271	0	0.03
     3	7.76262	0	0.03
     4	7.76184	0	0.03
     5	7.76102	0	0.03
     6	7.75716	0	0.03
     7	7.75621	0	0.03
     8	7.75527	0	0.03
     9	7.75436	0	0.03
    10	7.75348	0	0.03
    11	7.75323	0	0.03
    12	7.75266	0	0.03
    13	7.75196	0	0.03

Measurement: ieq34_max
  step	MAX(1000*ie(q34))	FROM	TO
     1	1.57532	0	0.03
     2	1.59516	0	0.03
     3	1.60342	0	0.03
     4	1.6384	0	0.03
     5	1.67327	0	0.03
     6	1.73073	0	0.03
     7	1.74351	0	0.03
     8	1.75554	0	0.03
     9	1.76693	0	0.03
    10	1.77777	0	0.03
    11	1.7809	0	0.03
    12	1.78816	0	0.03
    13	1.7981	0	0.03

Measurement: ieq34_rms
  step	RMS(1000*ie(q34))	FROM	TO
     1	1.57451	0	0.03
     2	1.57457	0	0.03
     3	1.57463	0	0.03
     4	1.57513	0	0.03
     5	1.57589	0	0.03
     6	1.57817	0	0.03
     7	1.5788	0	0.03
     8	1.57941	0	0.03
     9	1.58003	0	0.03
    10	1.58064	0	0.03
    11	1.58082	0	0.03
    12	1.58125	0	0.03
    13	1.58183	0	0.03

Measurement: vecq34_max
  step	MAX(-v(cq34,cq34))	FROM	TO
     1	-0	0	0.03
     2	-0	0	0.03
     3	-0	0	0.03
     4	-0	0	0.03
     5	-0	0	0.03
     6	-0	0	0.03
     7	-0	0	0.03
     8	-0	0	0.03
     9	-0	0	0.03
    10	-0	0	0.03
    11	-0	0	0.03
    12	-0	0	0.03
    13	-0	0	0.03

Measurement: pq34_max
  step	MAX(1000*v(cq34,cq36)*ic(q34)+v(fin,cq36)*ib(q34))	FROM	TO
     1	7.87355	0	0.03
     2	8.05221	0	0.03
     3	8.12668	0	0.03
     4	8.44482	0	0.03
     5	8.76533	0	0.03
     6	9.31455	0	0.03
     7	9.42288	0	0.03
     8	9.53427	0	0.03
     9	9.63952	0	0.03
    10	9.73956	0	0.03
    11	9.76853	0	0.03
    12	9.83538	0	0.03
    13	9.92708	0	0.03

Measurement: pq34_avg
  step	AVG(1000*v(cq34,cq36)*ic(q34)+v(fin,cq36)*ib(q34))	FROM	TO
     1	7.87085	0	0.03
     2	7.87078	0	0.03
     3	7.87071	0	0.03
     4	7.87015	0	0.03
     5	7.86878	0	0.03
     6	7.86706	0	0.03
     7	7.86653	0	0.03
     8	7.86599	0	0.03
     9	7.86545	0	0.03
    10	7.86491	0	0.03
    11	7.86474	0	0.03
    12	7.86433	0	0.03
    13	7.86368	0	0.03

Measurement: ieq35_max
  step	MAX(1000*(-ie(q35)))	FROM	TO
     1	3.21893	0	0.03
     2	3.22042	0	0.03
     3	3.22103	0	0.03
     4	3.22359	0	0.03
     5	3.2261	0	0.03
     6	3.23016	0	0.03
     7	3.23102	0	0.03
     8	3.23183	0	0.03
     9	3.23258	0	0.03
    10	3.23329	0	0.03
    11	3.23349	0	0.03
    12	3.23396	0	0.03
    13	3.2346	0	0.03

Measurement: ieq35_rms
  step	RMS(1000*(-ie(q35)))	FROM	TO
     1	3.2189	0	0.03
     2	3.2189	0	0.03
     3	3.21889	0	0.03
     4	3.21885	0	0.03
     5	3.2188	0	0.03
     6	3.21872	0	0.03
     7	3.2187	0	0.03
     8	3.21867	0	0.03
     9	3.21864	0	0.03
    10	3.21861	0	0.03
    11	3.2186	0	0.03
    12	3.21858	0	0.03
    13	3.21854	0	0.03

Measurement: vceq35_max
  step	MAX(v(cq35,eq35))	FROM	TO
     1	3.76164	0	0.03
     2	3.85989	0	0.03
     3	3.90058	0	0.03
     4	4.07229	0	0.03
     5	4.24294	0	0.03
     6	4.5228	0	0.03
     7	4.58379	0	0.03
     8	4.64056	0	0.03
     9	4.6939	0	0.03
    10	4.74434	0	0.03
    11	4.7589	0	0.03
    12	4.79241	0	0.03
    13	4.83819	0	0.03

Measurement: pq35_max
  step	MAX(1000*v(cq35,eq35)*ic(q35)+v(bq35,eq35)*ib(q35))	FROM	TO
     1	11.8591	0	0.03
     2	12.1764	0	0.03
     3	12.3079	0	0.03
     4	12.8635	0	0.03
     5	13.4165	0	0.03
     6	14.3254	0	0.03
     7	14.5238	0	0.03
     8	14.7085	0	0.03
     9	14.8822	0	0.03
    10	15.0464	0	0.03
    11	15.0939	0	0.03
    12	15.2031	0	0.03
    13	15.3523	0	0.03

Measurement: pq35_avg
  step	AVG(1000*v(cq35,eq35)*ic(q35)+v(bq35,eq35)*ib(q35))	FROM	TO
     1	11.8583	0	0.03
     2	11.8583	0	0.03
     3	11.8584	0	0.03
     4	11.8587	0	0.03
     5	11.8599	0	0.03
     6	11.8636	0	0.03
     7	11.8644	0	0.03
     8	11.8653	0	0.03
     9	11.8662	0	0.03
    10	11.8671	0	0.03
    11	11.8673	0	0.03
    12	11.8679	0	0.03
    13	11.8688	0	0.03

Measurement: ieq36_max
  step	MAX(1000*ie(q36))	FROM	TO
     1	3.21246	0	0.03
     2	3.21326	0	0.03
     3	3.21359	0	0.03
     4	3.21497	0	0.03
     5	3.21632	0	0.03
     6	3.21851	0	0.03
     7	3.21899	0	0.03
     8	3.21942	0	0.03
     9	3.21983	0	0.03
    10	3.22022	0	0.03
    11	3.22033	0	0.03
    12	3.22059	0	0.03
    13	3.22094	0	0.03

Measurement: ieq36_rms
  step	RMS(1000*ie(q36))	FROM	TO
     1	3.21245	0	0.03
     2	3.21245	0	0.03
     3	3.21245	0	0.03
     4	3.21244	0	0.03
     5	3.21242	0	0.03
     6	3.21237	0	0.03
     7	3.21236	0	0.03
     8	3.21235	0	0.03
     9	3.21233	0	0.03
    10	3.21232	0	0.03
    11	3.21232	0	0.03
    12	3.21231	0	0.03
    13	3.21229	0	0.03

Measurement: vecq36_max
  step	MAX(-v(cq36,eq36))	FROM	TO
     1	3.67342	0	0.03
     2	3.77172	0	0.03
     3	3.81245	0	0.03
     4	3.98435	0	0.03
     5	4.15514	0	0.03
     6	4.43511	0	0.03
     7	4.49614	0	0.03
     8	4.55295	0	0.03
     9	4.60632	0	0.03
    10	4.65678	0	0.03
    11	4.67135	0	0.03
    12	4.70488	0	0.03
    13	4.75067	0	0.03

Measurement: pq36_max
  step	MAX(1000*v(cq36,eq36)*ic(q36)+v(bq36,eq36)*ib(q36))	FROM	TO
     1	11.5755	0	0.03
     2	11.8894	0	0.03
     3	12.0195	0	0.03
     4	12.5691	0	0.03
     5	13.1157	0	0.03
     6	14.0128	0	0.03
     7	14.2085	0	0.03
     8	14.3908	0	0.03
     9	14.5621	0	0.03
    10	14.7241	0	0.03
    11	14.7709	0	0.03
    12	14.8785	0	0.03
    13	15.0256	0	0.03

Measurement: pq36_avg
  step	AVG(1000*v(cq36,eq36)*ic(q36)+v(bq36,eq36)*ib(q36))	FROM	TO
     1	11.5745	0	0.03
     2	11.5745	0	0.03
     3	11.5746	0	0.03
     4	11.575	0	0.03
     5	11.5757	0	0.03
     6	11.5776	0	0.03
     7	11.5782	0	0.03
     8	11.5787	0	0.03
     9	11.5792	0	0.03
    10	11.5797	0	0.03
    11	11.5799	0	0.03
    12	11.5803	0	0.03
    13	11.5808	0	0.03

Measurement: vd1_max
  step	MAX(-v(+lv,mid_pos))	FROM	TO
     1	-0.252908	0	0.03
     2	-0.169892	0	0.03
     3	-0.139052	0	0.03
     4	-0.115976	0	0.03
     5	-0.113019	0	0.03
     6	6.46527	0	0.03
     7	8.18882	0	0.03
     8	9.80198	0	0.03
     9	11.3238	0	0.03
    10	12.7671	0	0.03
    11	13.1845	0	0.03
    12	14.1459	0	0.03
    13	15.4619	0	0.03

Measurement: id1_max
  step	MAX(i(d1))	FROM	TO
     1	0.279764	0	0.03
     2	0.461988	0	0.03
     3	0.545576	0	0.03
     4	1.0038	0	0.03
     5	1.60369	0	0.03
     6	1.76612	0	0.03
     7	1.76621	0	0.03
     8	1.76534	0	0.03
     9	1.76606	0	0.03
    10	1.76754	0	0.03
    11	1.76819	0	0.03
    12	1.76885	0	0.03
    13	1.76942	0	0.03

Measurement: pd1_max
  step	MAX(1000*v(+lv,mid_pos)*i(d1))	FROM	TO
     1	84.676	0	0.03
     2	148.367	0	0.03
     3	178.675	0	0.03
     4	353.575	0	0.03
     5	599.175	0	0.03
     6	668.301	0	0.03
     7	668.341	0	0.03
     8	667.967	0	0.03
     9	668.278	0	0.03
    10	668.91	0	0.03
    11	669.191	0	0.03
    12	669.474	0	0.03
    13	669.719	0	0.03

Measurement: pd1_avg
  step	AVG(1000*v(+lv,mid_pos)*i(d1))	FROM	TO
     1	66.468	0	0.03
     2	71.27	0	0.03
     3	76.3753	0	0.03
     4	121.134	0	0.03
     5	189.73	0	0.03
     6	87.2604	0	0.03
     7	79.2309	0	0.03
     8	73.1958	0	0.03
     9	68.4421	0	0.03
    10	64.5709	0	0.03
    11	63.5475	0	0.03
    12	61.334	0	0.03
    13	58.5904	0	0.03

Measurement: vd2_max
  step	MAX(v(-lv,mid_neg))	FROM	TO
     1	-0.288344	0	0.03
     2	-0.229781	0	0.03
     3	-0.192995	0	0.03
     4	-0.118399	0	0.03
     5	0.741531	0	0.03
     6	8.37339	0	0.03
     7	10.1009	0	0.03
     8	11.7216	0	0.03
     9	13.2616	0	0.03
    10	14.7217	0	0.03
    11	15.1446	0	0.03
    12	16.1216	0	0.03
    13	17.472	0	0.03

Measurement: id2_max
  step	MAX(i(d2))	FROM	TO
     1	0.395844	0	0.03
     2	0.594619	0	0.03
     3	0.689436	0	0.03
     4	1.22974	0	0.03
     5	1.74817	0	0.03
     6	1.761	0	0.03
     7	1.76277	0	0.03
     8	1.76415	0	0.03
     9	1.76534	0	0.03
    10	1.7664	0	0.03
    11	1.76664	0	0.03
    12	1.76724	0	0.03
    13	1.76808	0	0.03

Measurement: pd2_max
  step	MAX(1000*(-v(-lv,mid_neg)*i(d2)))	FROM	TO
     1	124.833	0	0.03
     2	196.724	0	0.03
     3	232.123	0	0.03
     4	444.155	0	0.03
     5	660.615	0	0.03
     6	666.11	0	0.03
     7	666.867	0	0.03
     8	667.457	0	0.03
     9	667.97	0	0.03
    10	668.423	0	0.03
    11	668.525	0	0.03
    12	668.785	0	0.03
    13	669.145	0	0.03

Measurement: pd2_avg
  step	AVG(1000*(-v(-lv,mid_neg)*i(d2)))	FROM	TO
     1	106.39	0	0.03
     2	111.355	0	0.03
     3	116.709	0	0.03
     4	164.386	0	0.03
     5	162.098	0	0.03
     6	79.8041	0	0.03
     7	72.5321	0	0.03
     8	66.4722	0	0.03
     9	61.2188	0	0.03
    10	56.602	0	0.03
    11	55.3272	0	0.03
    12	52.4906	0	0.03
    13	48.8284	0	0.03

Measurement: vd3_max
  step	MAX(-v(cq15,bq7))	FROM	TO
     1	14.4823	0	0.03
     2	17.3357	0	0.03
     3	18.5304	0	0.03
     4	23.5897	0	0.03
     5	28.589	0	0.03
     6	36.9914	0	0.03
     7	38.8061	0	0.03
     8	40.4945	0	0.03
     9	42.082	0	0.03
    10	43.5863	0	0.03
    11	44.0218	0	0.03
    12	45.028	0	0.03
    13	46.4196	0	0.03

Measurement: id3_max
  step	MAX(1000*i(d3))	FROM	TO
     1	7.13266e-007	0	0.03
     2	9.42034e-005	0	0.03
     3	0.000134016	0	0.03
     4	0.000317675	0	0.03
     5	0.0387862	0	0.03
     6	0.435489	0	0.03
     7	0.491517	0	0.03
     8	0.544484	0	0.03
     9	0.593642	0	0.03
    10	0.638063	0	0.03
    11	0.652978	0	0.03
    12	0.68595	0	0.03
    13	0.728619	0	0.03

Measurement: pd3_max
  step	MAX(1000*v(cq15,bq7)*i(d3))	FROM	TO
     1	6.77338e-006	0	0.03
     2	0.00134329	0	0.03
     3	0.00191007	0	0.03
     4	0.00443679	0	0.03
     5	0.0198636	0	0.03
     6	0.252964	0	0.03
     7	0.287461	0	0.03
     8	0.320384	0	0.03
     9	0.351146	0	0.03
    10	0.378912	0	0.03
    11	0.388311	0	0.03
    12	0.409202	0	0.03
    13	0.436284	0	0.03

Measurement: pd3_avg
  step	AVG(1000*v(cq15,bq7)*i(d3))	FROM	TO
     1	8.41935e-008	0	0.03
     2	9.6606e-008	0	0.03
     3	1.00652e-007	0	0.03
     4	9.91507e-008	0	0.03
     5	0.000118499	0	0.03
     6	0.0366155	0	0.03
     7	0.0429144	0	0.03
     8	0.0489738	0	0.03
     9	0.0549556	0	0.03
    10	0.0609663	0	0.03
    11	0.0627796	0	0.03
    12	0.067101	0	0.03
    13	0.0733848	0	0.03

Measurement: vd4_max
  step	MAX(v(cq16,bq8))	FROM	TO
     1	12.4172	0	0.03
     2	15.2639	0	0.03
     3	16.4307	0	0.03
     4	21.3086	0	0.03
     5	26.5588	0	0.03
     6	34.9967	0	0.03
     7	36.829	0	0.03
     8	38.5341	0	0.03
     9	40.1367	0	0.03
    10	41.6531	0	0.03
    11	42.0911	0	0.03
    12	43.0995	0	0.03
    13	44.4784	0	0.03

Measurement: id4_max
  step	MAX(1000*i(d4))	FROM	TO
     1	2.65999e-007	0	0.03
     2	0.000101842	0	0.03
     3	0.000145151	0	0.03
     4	0.0003534	0	0.03
     5	0.16083	0	0.03
     6	0.497684	0	0.03
     7	0.572781	0	0.03
     8	0.644184	0	0.03
     9	0.703788	0	0.03
    10	0.766848	0	0.03
    11	0.77695	0	0.03
    12	0.820449	0	0.03
    13	0.876413	0	0.03

Measurement: pd4_max
  step	MAX(1000*(-v(cq16,bq8)*i(d4)))	FROM	TO
     1	9.59674e-006	0	0.03
     2	0.00123731	0	0.03
     3	0.00175931	0	0.03
     4	0.00413331	0	0.03
     5	0.0885975	0	0.03
     6	0.291448	0	0.03
     7	0.338028	0	0.03
     8	0.382873	0	0.03
     9	0.42045	0	0.03
    10	0.460651	0	0.03
    11	0.467194	0	0.03
    12	0.494984	0	0.03
    13	0.531142	0	0.03

Measurement: pd4_avg
  step	AVG(1000*(-v(cq16,bq8)*i(d4)))	FROM	TO
     1	1.09496e-007	0	0.03
     2	1.0134e-007	0	0.03
     3	9.67743e-008	0	0.03
     4	5.89574e-008	0	0.03
     5	0.00563437	0	0.03
     6	0.0203281	0	0.03
     7	0.0234742	0	0.03
     8	0.026662	0	0.03
     9	0.0299527	0	0.03
    10	0.0333899	0	0.03
    11	0.0344498	0	0.03
    12	0.0370232	0	0.03
    13	0.040886	0	0.03

Measurement: vdz1_max
  step	MAX(v(cq15,vbem1))	FROM	TO
     1	2.76847	0	0.03
     2	2.77518	0	0.03
     3	2.77796	0	0.03
     4	2.7896	0	0.03
     5	2.80047	0	0.03
     6	2.81542	0	0.03
     7	2.81886	0	0.03
     8	2.82207	0	0.03
     9	2.82508	0	0.03
    10	2.82792	0	0.03
    11	2.82874	0	0.03
    12	2.83062	0	0.03
    13	2.83374	0	0.03

Measurement: idz1_max
  step	MAX(1000*(-i(dz1)))	FROM	TO
     1	23.1411	0	0.03
     2	23.5608	0	0.03
     3	23.7346	0	0.03
     4	24.4645	0	0.03
     5	25.1474	0	0.03
     6	26.0884	0	0.03
     7	26.3053	0	0.03
     8	26.5075	0	0.03
     9	26.6974	0	0.03
    10	26.8767	0	0.03
    11	26.9284	0	0.03
    12	27.0473	0	0.03
    13	27.2849	0	0.03

Measurement: pdz1_max
  step	MAX(1000*v(vbem1,cq15)*i(dz1))	FROM	TO
     1	64.0654	0	0.03
     2	65.3855	0	0.03
     3	65.9336	0	0.03
     4	68.246	0	0.03
     5	70.4245	0	0.03
     6	73.4498	0	0.03
     7	74.1509	0	0.03
     8	74.8058	0	0.03
     9	75.4221	0	0.03
    10	76.0051	0	0.03
    11	76.1734	0	0.03
    12	76.5607	0	0.03
    13	77.3182	0	0.03

Measurement: pdz1_avg
  step	AVG(1000*v(vbem1,cq15)*i(dz1))	FROM	TO
     1	60.3053	0	0.03
     2	60.3018	0	0.03
     3	60.2982	0	0.03
     4	60.2691	0	0.03
     5	60.1365	0	0.03
     6	59.4242	0	0.03
     7	59.2914	0	0.03
     8	59.165	0	0.03
     9	59.0414	0	0.03
    10	58.9172	0	0.03
    11	58.8792	0	0.03
    12	58.786	0	0.03
    13	58.6369	0	0.03

Measurement: vdz2_max
  step	MAX(-v(cq16,vbem2))	FROM	TO
     1	2.76788	0	0.03
     2	2.77459	0	0.03
     3	2.77737	0	0.03
     4	2.78903	0	0.03
     5	2.79993	0	0.03
     6	2.81494	0	0.03
     7	2.8184	0	0.03
     8	2.82162	0	0.03
     9	2.82465	0	0.03
    10	2.82751	0	0.03
    11	2.82833	0	0.03
    12	2.83023	0	0.03
    13	2.83281	0	0.03

Measurement: idz2_max
  step	MAX(1000*(-i(dz2)))	FROM	TO
     1	23.1042	0	0.03
     2	23.5241	0	0.03
     3	23.6979	0	0.03
     4	24.4288	0	0.03
     5	25.1134	0	0.03
     6	26.0582	0	0.03
     7	26.2762	0	0.03
     8	26.4795	0	0.03
     9	26.6706	0	0.03
    10	26.851	0	0.03
    11	26.9031	0	0.03
    12	27.0228	0	0.03
    13	27.2173	0	0.03

Measurement: pdz2_max
  step	MAX(1000*(-v(vbem2,cq16)*i(dz2)))	FROM	TO
     1	63.9497	0	0.03
     2	65.2697	0	0.03
     3	65.818	0	0.03
     4	68.1326	0	0.03
     5	70.3156	0	0.03
     6	73.3524	0	0.03
     7	74.0569	0	0.03
     8	74.7153	0	0.03
     9	75.335	0	0.03
    10	75.9215	0	0.03
    11	76.0909	0	0.03
    12	76.4807	0	0.03
    13	77.101	0	0.03

Measurement: pdz2_avg
  step	AVG(1000*(-v(vbem2,cq16)*i(dz2)))	FROM	TO
     1	60.1968	0	0.03
     2	60.1929	0	0.03
     3	60.1888	0	0.03
     4	60.1547	0	0.03
     5	60.0158	0	0.03
     6	59.2864	0	0.03
     7	59.1502	0	0.03
     8	59.0216	0	0.03
     9	58.8988	0	0.03
    10	58.7823	0	0.03
    11	58.7493	0	0.03
    12	58.6761	0	0.03
    13	58.5915	0	0.03

Measurement: vdz3_max
  step	MAX(v(bq15,eq17))	FROM	TO
     1	21.9612	0	0.03
     2	21.9621	0	0.03
     3	21.9624	0	0.03
     4	21.9639	0	0.03
     5	21.9652	0	0.03
     6	21.9671	0	0.03
     7	21.9675	0	0.03
     8	21.9679	0	0.03
     9	21.9683	0	0.03
    10	21.9686	0	0.03
    11	21.9687	0	0.03
    12	21.969	0	0.03
    13	21.9693	0	0.03

Measurement: idz3_max
  step	MAX(1000*i(dz3))	FROM	TO
     1	-3.4164	0	0.03
     2	-3.38762	0	0.03
     3	-3.37277	0	0.03
     4	-3.31007	0	0.03
     5	-3.24763	0	0.03
     6	-3.14455	0	0.03
     7	-3.12199	0	0.03
     8	-3.10097	0	0.03
     9	-3.08119	0	0.03
    10	-3.06248	0	0.03
    11	-3.05708	0	0.03
    12	-3.04465	0	0.03
    13	-3.02751	0	0.03

Measurement: pdz3_max
  step	MAX(1000*v(bq15,eq17)*i(dz3))	FROM	TO
     1	-74.9927	0	0.03
     2	-74.3587	0	0.03
     3	-74.0315	0	0.03
     4	-72.6503	0	0.03
     5	-71.275	0	0.03
     6	-69.005	0	0.03
     7	-68.5083	0	0.03
     8	-68.0454	0	0.03
[...]
     5	2.98975	0	0.03
     6	2.99067	0	0.03
     7	2.99094	0	0.03
     8	2.99116	0	0.03
     9	2.99138	0	0.03
    10	2.99156	0	0.03
    11	2.99161	0	0.03
    12	2.99173	0	0.03
    13	2.99191	0	0.03

Measurement: pd38_max
  step	MAX(1000*(-v(cd36,+rlv)*i(d38)))	FROM	TO
     1	2.0072	0	0.03
     2	2.00742	0	0.03
     3	2.00751	0	0.03
     4	2.00791	0	0.03
     5	2.00829	0	0.03
     6	2.00897	0	0.03
     7	2.00917	0	0.03
     8	2.00933	0	0.03
     9	2.00949	0	0.03
    10	2.00962	0	0.03
    11	2.00966	0	0.03
    12	2.00975	0	0.03
    13	2.00988	0	0.03

Measurement: pd38_avg
  step	AVG(1000*(-v(cd36,+rlv)*i(d38)))	FROM	TO
     1	2.00716	0	0.03
     2	2.00716	0	0.03
     3	2.00716	0	0.03
     4	2.00715	0	0.03
     5	2.00714	0	0.03
     6	2.00712	0	0.03
     7	2.00712	0	0.03
     8	2.00711	0	0.03
     9	2.0071	0	0.03
    10	2.0071	0	0.03
    11	2.00709	0	0.03
    12	2.00709	0	0.03
    13	2.00708	0	0.03

Measurement: vcf1_max
  step	MAX(v(+hv))	FROM	TO
     1	54.7862	0	0.03
     2	54.7861	0	0.03
     3	54.786	0	0.03
     4	54.7853	0	0.03
     5	54.7842	0	0.03
     6	54.3891	0	0.03
     7	54.3331	0	0.03
     8	54.2839	0	0.03
     9	54.2398	0	0.03
    10	54.1994	0	0.03
    11	54.188	0	0.03
    12	54.1621	0	0.03
    13	54.1273	0	0.03

Measurement: vcf2_max
  step	MAX(-v(-hv))	FROM	TO
     1	54.7974	0	0.03
     2	54.7973	0	0.03
     3	54.7973	0	0.03
     4	54.7964	0	0.03
     5	54.6595	0	0.03
     6	54.3171	0	0.03
     7	54.265	0	0.03
     8	54.2182	0	0.03
     9	54.1753	0	0.03
    10	54.1356	0	0.03
    11	54.1243	0	0.03
    12	54.0986	0	0.03
    13	54.064	0	0.03

Measurement: vcf3_max
  step	MAX(v(+lv))	FROM	TO
     1	17.5613	0	0.03
     2	17.5487	0	0.03
     3	17.5328	0	0.03
     4	17.4994	0	0.03
     5	17.4994	0	0.03
     6	17.4994	0	0.03
     7	17.5088	0	0.03
     8	17.5243	0	0.03
     9	17.5365	0	0.03
    10	17.5464	0	0.03
    11	17.5491	0	0.03
    12	17.5548	0	0.03
    13	17.5619	0	0.03

Measurement: vcf4_max
  step	MAX(-v(-lv))	FROM	TO
     1	17.4251	0	0.03
     2	17.415	0	0.03
     3	17.4011	0	0.03
     4	17.3235	0	0.03
     5	17.324	0	0.03
     6	17.4834	0	0.03
     7	17.5014	0	0.03
     8	17.5169	0	0.03
     9	17.5338	0	0.03
    10	17.5488	0	0.03
    11	17.553	0	0.03
    12	17.5624	0	0.03
    13	17.5746	0	0.03

Measurement: vcf5_max
  step	MAX(v(+hv))	FROM	TO
     1	54.7862	0	0.03
     2	54.7861	0	0.03
     3	54.786	0	0.03
     4	54.7853	0	0.03
     5	54.7842	0	0.03
     6	54.3891	0	0.03
     7	54.3331	0	0.03
     8	54.2839	0	0.03
     9	54.2398	0	0.03
    10	54.1994	0	0.03
    11	54.188	0	0.03
    12	54.1621	0	0.03
    13	54.1273	0	0.03

Measurement: vcf6_max
  step	MAX(-v(-hv))	FROM	TO
     1	54.7974	0	0.03
     2	54.7973	0	0.03
     3	54.7973	0	0.03
     4	54.7964	0	0.03
     5	54.6595	0	0.03
     6	54.3171	0	0.03
     7	54.265	0	0.03
     8	54.2182	0	0.03
     9	54.1753	0	0.03
    10	54.1356	0	0.03
    11	54.1243	0	0.03
    12	54.0986	0	0.03
    13	54.064	0	0.03

Measurement: vcf7_max
  step	MAX(v(+lv))	FROM	TO
     1	17.5613	0	0.03
     2	17.5487	0	0.03
     3	17.5328	0	0.03
     4	17.4994	0	0.03
     5	17.4994	0	0.03
     6	17.4994	0	0.03
     7	17.5088	0	0.03
     8	17.5243	0	0.03
     9	17.5365	0	0.03
    10	17.5464	0	0.03
    11	17.5491	0	0.03
    12	17.5548	0	0.03
    13	17.5619	0	0.03

Measurement: vcf8_max
  step	MAX(-v(-lv))	FROM	TO
     1	17.4251	0	0.03
     2	17.415	0	0.03
     3	17.4011	0	0.03
     4	17.3235	0	0.03
     5	17.324	0	0.03
     6	17.4834	0	0.03
     7	17.5014	0	0.03
     8	17.5169	0	0.03
     9	17.5338	0	0.03
    10	17.5488	0	0.03
    11	17.553	0	0.03
    12	17.5624	0	0.03
    13	17.5746	0	0.03

Measurement: vcf9_max
  step	MAX(v(+hvf))	FROM	TO
     1	53.8961	0	0.03
     2	53.896	0	0.03
     3	53.896	0	0.03
     4	53.8952	0	0.03
     5	53.8946	0	0.03
     6	53.2707	0	0.03
     7	53.181	0	0.03
     8	53.1024	0	0.03
     9	53.0316	0	0.03
    10	52.9668	0	0.03
    11	52.9485	0	0.03
    12	52.9069	0	0.03
    13	52.8511	0	0.03

Measurement: vcf10_max
  step	MAX(-v(-hvf))	FROM	TO
     1	53.9347	0	0.03
     2	53.9346	0	0.03
     3	53.9345	0	0.03
     4	53.9334	0	0.03
     5	53.7204	0	0.03
     6	53.1757	0	0.03
     7	53.0903	0	0.03
     8	53.0134	0	0.03
     9	52.9429	0	0.03
    10	52.8778	0	0.03
    11	52.8592	0	0.03
    12	52.8168	0	0.03
    13	52.7596	0	0.03

Measurement: vcf11_max
  step	MAX(v(+hvf))	FROM	TO
     1	53.8961	0	0.03
     2	53.896	0	0.03
     3	53.896	0	0.03
     4	53.8952	0	0.03
     5	53.8946	0	0.03
     6	53.2707	0	0.03
     7	53.181	0	0.03
     8	53.1024	0	0.03
     9	53.0316	0	0.03
    10	52.9668	0	0.03
    11	52.9485	0	0.03
    12	52.9069	0	0.03
    13	52.8511	0	0.03

Measurement: vcf12_max
  step	MAX(-v(-hvf))	FROM	TO
     1	53.9347	0	0.03
     2	53.9346	0	0.03
     3	53.9345	0	0.03
     4	53.9334	0	0.03
     5	53.7204	0	0.03
     6	53.1757	0	0.03
     7	53.0903	0	0.03
     8	53.0134	0	0.03
     9	52.9429	0	0.03
    10	52.8778	0	0.03
    11	52.8592	0	0.03
    12	52.8168	0	0.03
    13	52.7596	0	0.03

Measurement: vcc1_max
  step	MAX(v(eq9,eq10))	FROM	TO
     1	1.40338	0	0.03
     2	1.41351	0	0.03
     3	1.41772	0	0.03
     4	1.43549	0	0.03
     5	1.45218	0	0.03
     6	1.47507	0	0.03
     7	1.48043	0	0.03
     8	1.48543	0	0.03
     9	1.49015	0	0.03
    10	1.49461	0	0.03
    11	1.4959	0	0.03
    12	1.49887	0	0.03
    13	1.50293	0	0.03

Measurement: vcc2_max
  step	MAX(v(vbem1,vbem2))	FROM	TO
     1	2.6433	0	0.03
     2	2.65489	0	0.03
     3	2.6597	0	0.03
     4	2.67997	0	0.03
     5	2.69904	0	0.03
     6	2.7255	0	0.03
     7	2.73163	0	0.03
     8	2.73736	0	0.03
     9	2.74275	0	0.03
    10	2.74784	0	0.03
    11	2.74932	0	0.03
    12	2.7527	0	0.03
    13	2.75732	0	0.03

Measurement: vcc3_max
  step	MAX(v(+hv,bq7))	FROM	TO
     1	37.5932	0	0.03
     2	37.6262	0	0.03
     3	37.6522	0	0.03
     4	37.887	0	0.03
     5	38.2173	0	0.03
     6	37.0569	0	0.03
     7	36.9581	0	0.03
     8	36.8754	0	0.03
     9	36.8038	0	0.03
    10	36.7404	0	0.03
    11	36.7227	0	0.03
    12	36.6831	0	0.03
    13	36.6311	0	0.03

Measurement: vcc4_max
  step	MAX(-v(-hv,bq8))	FROM	TO
     1	37.7558	0	0.03
     2	37.7922	0	0.03
     3	37.8226	0	0.03
     4	38.0985	0	0.03
     5	37.5762	0	0.03
     6	36.8154	0	0.03
     7	36.7181	0	0.03
     8	36.6319	0	0.03
     9	36.5539	0	0.03
    10	36.4811	0	0.03
    11	36.4603	0	0.03
    12	36.4124	0	0.03
    13	36.3487	0	0.03

Measurement: vcc5_max
  step	MAX(v(pos_diff_out,cq15))	FROM	TO
     1	26.808	0	0.03
     2	29.6926	0	0.03
     3	30.8902	0	0.03
     4	35.9724	0	0.03
     5	41.0429	0	0.03
     6	48.7308	0	0.03
     7	50.4537	0	0.03
     8	52.0632	0	0.03
     9	53.5808	0	0.03
    10	55.0223	0	0.03
    11	55.4404	0	0.03
    12	56.4075	0	0.03
    13	57.7491	0	0.03

Measurement: vcc6_max
  step	MAX(-v(neg_diff_out,cq16))	FROM	TO
     1	24.8784	0	0.03
     2	27.7553	0	0.03
     3	28.9489	0	0.03
     4	34.0051	0	0.03
     5	38.8466	0	0.03
     6	46.6076	0	0.03
     7	48.3313	0	0.03
     8	49.9388	0	0.03
     9	51.4518	0	0.03
    10	52.8846	0	0.03
    11	53.2987	0	0.03
    12	54.2524	0	0.03
    13	55.5567	0	0.03

Measurement: vcc7_max
  step	MAX(v(out,fin))	FROM	TO
     1	-0.896169	0	0.03
     2	1.83403	0	0.03
     3	2.96495	0	0.03
     4	7.73779	0	0.03
     5	12.4798	0	0.03
     6	20.2518	0	0.03
     7	21.946	0	0.03
     8	23.523	0	0.03
     9	25.0046	0	0.03
    10	26.4055	0	0.03
    11	26.81	0	0.03
    12	27.7407	0	0.03
    13	29.0123	0	0.03

Measurement: vcaf_max
  step	MAX(-v(cafn))	FROM	TO
     1	0.00117701	0	0.03
     2	0.00117706	0	0.03
     3	0.00117708	0	0.03
     4	0.00117718	0	0.03
     5	0.00117717	0	0.03
     6	0.00117741	0	0.03
     7	0.00117746	0	0.03
     8	0.0011775	0	0.03
     9	0.00117753	0	0.03
    10	0.00117756	0	0.03
    11	0.00117757	0	0.03
    12	0.00117758	0	0.03
    13	0.00117757	0	0.03

Measurement: vcf31_max
  step	MAX(v(+rlv))	FROM	TO
     1	5.00292	0	0.03
     2	5.00292	0	0.03
     3	5.00292	0	0.03
     4	5.00292	0	0.03
     5	5.00292	0	0.03
     6	5.00292	0	0.03
     7	5.00292	0	0.03
     8	5.00292	0	0.03
     9	5.00292	0	0.03
    10	5.00292	0	0.03
    11	5.00292	0	0.03
    12	5.00292	0	0.03
    13	5.00292	0	0.03

Measurement: vcf32_max
  step	MAX(-v(-rlv))	FROM	TO
     1	5.01284	0	0.03
     2	5.01283	0	0.03
     3	5.01283	0	0.03
     4	5.01279	0	0.03
     5	5.01279	0	0.03
     6	5.01287	0	0.03
     7	5.01287	0	0.03
     8	5.01288	0	0.03
     9	5.01289	0	0.03
    10	5.0129	0	0.03
    11	5.0129	0	0.03
    12	5.0129	0	0.03
    13	5.01291	0	0.03

Measurement: vcf33_max
  step	MAX(v(+rlv))	FROM	TO
     1	5.00292	0	0.03
     2	5.00292	0	0.03
     3	5.00292	0	0.03
     4	5.00292	0	0.03
     5	5.00292	0	0.03
     6	5.00292	0	0.03
     7	5.00292	0	0.03
     8	5.00292	0	0.03
     9	5.00292	0	0.03
    10	5.00292	0	0.03
    11	5.00292	0	0.03
    12	5.00292	0	0.03
    13	5.00292	0	0.03

Measurement: vcf34_max
  step	MAX(-v(-rlv))	FROM	TO
     1	5.01284	0	0.03
     2	5.01283	0	0.03
     3	5.01283	0	0.03
     4	5.01279	0	0.03
     5	5.01279	0	0.03
     6	5.01287	0	0.03
     7	5.01287	0	0.03
     8	5.01288	0	0.03
     9	5.01289	0	0.03
    10	5.0129	0	0.03
    11	5.0129	0	0.03
    12	5.0129	0	0.03
    13	5.01291	0	0.03

Measurement: prf1_avg
  step	AVG(1000*v(+hv,+hvf)*i(rf1))	FROM	TO
     1	1156.92	0	0.03
     2	1156.9	0	0.03
     3	1156.88	0	0.03
     4	1156.7	0	0.03
     5	1156.35	0	0.03
     6	1080.8	0	0.03
     7	1069.75	0	0.03
     8	1060.07	0	0.03
     9	1051.37	0	0.03
    10	1043.43	0	0.03
    11	1041.18	0	0.03
    12	1036.07	0	0.03
    13	1029.2	0	0.03

Measurement: prf2_avg
  step	AVG(1000*v(-hv,-hvf)*i(rf2))	FROM	TO
     1	946.636	0	0.03
     2	946.613	0	0.03
     3	946.589	0	0.03
     4	946.381	0	0.03
     5	924.338	0	0.03
     6	863.59	0	0.03
     7	854.237	0	0.03
     8	845.856	0	0.03
     9	838.204	0	0.03
    10	831.151	0	0.03
    11	829.147	0	0.03
    12	824.59	0	0.03
    13	818.497	0	0.03

Measurement: pr9_avg
  step	AVG(1000*v(eq7,mid_pos)*i(r9))	FROM	TO
     1	1.06165e-009	0	0.03
     2	1.80697e-008	0	0.03
     3	4.01348e-008	0	0.03
     4	2.78422e-007	0	0.03
     5	0.0011092	0	0.03
     6	1.75086	0	0.03
     7	1.9444	0	0.03
     8	2.10681	0	0.03
     9	2.24797	0	0.03
    10	2.37361	0	0.03
    11	2.4087	0	0.03
    12	2.48771	0	0.03
    13	2.59217	0	0.03

Measurement: pr10_avg
  step	AVG(1000*(-v(eq8,mid_neg)*i(r10)))	FROM	TO
     1	2.65856e-009	0	0.03
     2	3.1189e-008	0	0.03
     3	6.75999e-008	0	0.03
     4	6.24444e-007	0	0.03
     5	0.691929	0	0.03
     6	1.95875	0	0.03
     7	2.1283	0	0.03
     8	2.27799	0	0.03
     9	2.4138	0	0.03
    10	2.53878	0	0.03
    11	2.57434	0	0.03
    12	2.65541	0	0.03
    13	2.76463	0	0.03

Measurement: pr11_avg
  step	AVG(1000*v(eq9,mid_re)*i(r11))	FROM	TO
     1	4.71943	0	0.03
     2	4.7159	0	0.03
     3	4.71195	0	0.03
     4	4.67369	0	0.03
     5	4.60757	0	0.03
     6	4.46434	0	0.03
     7	4.43319	0	0.03
     8	4.40307	0	0.03
     9	4.37312	0	0.03
    10	4.3421	0	0.03
    11	4.33231	0	0.03
    12	4.30743	0	0.03
    13	4.2643	0	0.03

Measurement: pr12_avg
  step	AVG(1000*(-v(eq10,mid_re)*i(r12)))	FROM	TO
     1	4.71943	0	0.03
     2	4.7159	0	0.03
     3	4.71195	0	0.03
     4	4.67369	0	0.03
     5	4.60757	0	0.03
     6	4.46434	0	0.03
     7	4.43319	0	0.03
     8	4.40307	0	0.03
     9	4.37312	0	0.03
    10	4.3421	0	0.03
    11	4.33231	0	0.03
    12	4.30743	0	0.03
    13	4.2643	0	0.03

Measurement: pr15_avg
  step	AVG(1000*v(+hvf,eq15)*i(r15))	FROM	TO
     1	14.6078	0	0.03
     2	14.6083	0	0.03
     3	14.6087	0	0.03
     4	14.6116	0	0.03
     5	14.5818	0	0.03
     6	14.4298	0	0.03
     7	14.4063	0	0.03
     8	14.385	0	0.03
     9	14.3648	0	0.03
    10	14.3444	0	0.03
    11	14.338	0	0.03
    12	14.3216	0	0.03
    13	14.292	0	0.03

Measurement: pr16_avg
  step	AVG(1000*(-v(-hvf,eq16)*i(r16)))	FROM	TO
     1	14.6757	0	0.03
     2	14.6766	0	0.03
     3	14.6773	0	0.03
     4	14.6826	0	0.03
     5	14.6721	0	0.03
     6	14.484	0	0.03
     7	14.4585	0	0.03
     8	14.4365	0	0.03
     9	14.4173	0	0.03
    10	14.4014	0	0.03
    11	14.3974	0	0.03
    12	14.3905	0	0.03
    13	14.3895	0	0.03

Measurement: pr17_avg
  step	AVG(1000*v(vbem1,bq9)*i(r17))	FROM	TO
     1	0.000617319	0	0.03
     2	0.000634864	0	0.03
     3	0.000653608	0	0.03
     4	0.000837434	0	0.03
     5	0.00123821	0	0.03
     6	0.00258972	0	0.03
     7	0.00305931	0	0.03
     8	0.00358312	0	0.03
     9	0.00416916	0	0.03
    10	0.00482636	0	0.03
    11	0.00503808	0	0.03
    12	0.00556882	0	0.03
    13	0.00640969	0	0.03

Measurement: pr18_avg
  step	AVG(1000*(-v(vbem2,bq10)*i(r18)))	FROM	TO
     1	0.000189546	0	0.03
     2	0.000197127	0	0.03
     3	0.000205355	0	0.03
     4	0.000291308	0	0.03
     5	0.000510311	0	0.03
     6	0.00127779	0	0.03
     7	0.00157383	0	0.03
     8	0.00193356	0	0.03
     9	0.00240648	0	0.03
    10	0.00312939	0	0.03
    11	0.00344112	0	0.03
    12	0.00452473	0	0.03
    13	0.00799842	0	0.03

Measurement: pr19_avg
  step	AVG(1000*v(+hv,bq15)*i(r19))	FROM	TO
     1	16.4751	0	0.03
     2	16.4747	0	0.03
     3	16.4742	0	0.03
     4	16.4702	0	0.03
     5	16.4512	0	0.03
     6	15.8465	0	0.03
     7	15.7566	0	0.03
     8	15.6769	0	0.03
     9	15.6042	0	0.03
    10	15.5366	0	0.03
    11	15.5171	0	0.03
    12	15.4718	0	0.03
    13	15.4077	0	0.03

Measurement: pr20_avg
  step	AVG(1000*(-v(-hv,bq16)*i(r20)))	FROM	TO
     1	14.8354	0	0.03
     2	14.835	0	0.03
     3	14.8345	0	0.03
     4	14.8301	0	0.03
     5	14.6432	0	0.03
     6	14.115	0	0.03
     7	14.0316	0	0.03
     8	13.9566	0	0.03
     9	13.8879	0	0.03
    10	13.8247	0	0.03
    11	13.8069	0	0.03
    12	13.767	0	0.03
    13	13.7164	0	0.03

Measurement: pr21_avg
  step	AVG(1000*v(vbem1,bq19)*i(r21))	FROM	TO
     1	0.904933	0	0.03
     2	0.904904	0	0.03
     3	0.90487	0	0.03
     4	0.90455	0	0.03
     5	0.902948	0	0.03
     6	0.894257	0	0.03
     7	0.892676	0	0.03
     8	0.891172	0	0.03
     9	0.889697	0	0.03
    10	0.888206	0	0.03
    11	0.887748	0	0.03
    12	0.886621	0	0.03
    13	0.884808	0	0.03

Measurement: pr22_avg
  step	AVG(1000*(-v(vbem2,bq20)*i(r22)))	FROM	TO
     1	0.677956	0	0.03
     2	0.677931	0	0.03
     3	0.677904	0	0.03
     4	0.677655	0	0.03
     5	0.676629	0	0.03
     6	0.671398	0	0.03
     7	0.670416	0	0.03
     8	0.669477	0	0.03
     9	0.668555	0	0.03
    10	0.667623	0	0.03
    11	0.667337	0	0.03
    12	0.666636	0	0.03
    13	0.665517	0	0.03

Measurement: prvmv_avg
  step	AVG(1000*v(bq19,vbemrv)*i(rmvm))	FROM	TO
     1	0.281885	0	0.03
     2	0.281879	0	0.03
     3	0.281874	0	0.03
     4	0.281829	0	0.03
     5	0.281715	0	0.03
     6	0.281262	0	0.03
     7	0.281164	0	0.03
     8	0.281068	0	0.03
     9	0.280973	0	0.03
    10	0.280877	0	0.03
    11	0.280847	0	0.03
    12	0.280776	0	0.03
    13	0.280666	0	0.03

Measurement: prmvm_avg
  step	AVG(1000*v(vbemrv,bq20)*i(rmvm))	FROM	TO
     1	0.845654	0	0.03
     2	0.845638	0	0.03
     3	0.845622	0	0.03
     4	0.845488	0	0.03
     5	0.845146	0	0.03
     6	0.843787	0	0.03
     7	0.843493	0	0.03
     8	0.843205	0	0.03
     9	0.842919	0	0.03
    10	0.84263	0	0.03
    11	0.842542	0	0.03
    12	0.842328	0	0.03
    13	0.841998	0	0.03

Measurement: pr31_avg
  step	AVG(1000*v(+hvf,cq31)*i(r31))	FROM	TO
     1	38.3987	0	0.03
     2	38.4007	0	0.03
     3	38.4027	0	0.03
     4	38.4188	0	0.03
     5	38.4524	0	0.03
     6	38.5188	0	0.03
     7	38.5386	0	0.03
     8	38.5586	0	0.03
     9	38.5787	0	0.03
    10	38.5992	0	0.03
    11	38.6054	0	0.03
    12	38.6201	0	0.03
    13	38.6421	0	0.03

Measurement: pr32_avg
  step	AVG(1000*(-v(-hvf,cq32)*i(r32)))	FROM	TO
     1	38.189	0	0.03
     2	38.1919	0	0.03
     3	38.1948	0	0.03
     4	38.2181	0	0.03
     5	38.2517	0	0.03
     6	38.3525	0	0.03
     7	38.3808	0	0.03
     8	38.409	0	0.03
     9	38.4372	0	0.03
    10	38.4652	0	0.03
    11	38.4735	0	0.03
    12	38.4929	0	0.03
    13	38.5196	0	0.03

Measurement: pr33_avg
  step	AVG(1000*v(rv1m,-rlv)*i(r33))	FROM	TO
     1	1.5542	0	0.03
     2	1.55419	0	0.03
     3	1.55419	0	0.03
     4	1.55415	0	0.03
     5	1.55411	0	0.03
     6	1.55403	0	0.03
     7	1.554	0	0.03
     8	1.55397	0	0.03
     9	1.55394	0	0.03
    10	1.55391	0	0.03
    11	1.5539	0	0.03
    12	1.55388	0	0.03
    13	1.55385	0	0.03

Measurement: pr34_avg
  step	AVG(1000*(-v(rv2m,+rlv)*i(r34)))	FROM	TO
     1	1.54797	0	0.03
     2	1.54797	0	0.03
     3	1.54797	0	0.03
     4	1.54796	0	0.03
     5	1.54794	0	0.03
     6	1.5479	0	0.03
     7	1.54789	0	0.03
     8	1.54787	0	0.03
     9	1.54786	0	0.03
    10	1.54785	0	0.03
    11	1.54785	0	0.03
    12	1.54784	0	0.03
    13	1.54783	0	0.03

Measurement: pr35_avg
  step	AVG(1000*v(+hvf,midc1)*i(r35))	FROM	TO
     1	34.4512	0	0.03
     2	34.4511	0	0.03
     3	34.451	0	0.03
     4	34.4502	0	0.03
     5	34.4463	0	0.03
     6	34.4322	0	0.03
     7	34.4295	0	0.03
     8	34.427	0	0.03
     9	34.4245	0	0.03
    10	34.422	0	0.03
    11	34.4213	0	0.03
    12	34.4194	0	0.03
    13	34.4161	0	0.03

Measurement: pr36_avg
  step	AVG(1000*(-v(-hvf,midc2)*i(r36)))	FROM	TO
     1	34.6235	0	0.03
     2	34.6234	0	0.03
     3	34.6233	0	0.03
     4	34.6225	0	0.03
     5	34.62	0	0.03
     6	34.602	0	0.03
     7	34.5988	0	0.03
     8	34.5959	0	0.03
     9	34.5932	0	0.03
    10	34.5907	0	0.03
    11	34.5901	0	0.03
    12	34.5886	0	0.03
    13	34.5873	0	0.03

Measurement: pr37_avg
  step	AVG(1000*(-v(bq35)*i(r37)))	FROM	TO
     1	11.219	0	0.03
     2	11.2189	0	0.03
     3	11.2189	0	0.03
     4	11.2184	0	0.03
     5	11.2185	0	0.03
     6	11.2195	0	0.03
     7	11.2196	0	0.03
     8	11.2197	0	0.03
     9	11.2197	0	0.03
    10	11.2198	0	0.03
    11	11.2198	0	0.03
    12	11.2198	0	0.03
    13	11.2199	0	0.03

Measurement: pr38_avg
  step	AVG(1000*v(bq36)*i(r38))	FROM	TO
     1	11.1598	0	0.03
     2	11.1598	0	0.03
     3	11.1598	0	0.03
     4	11.1598	0	0.03
     5	11.1598	0	0.03
     6	11.1598	0	0.03
     7	11.1598	0	0.03
     8	11.1598	0	0.03
     9	11.1598	0	0.03
    10	11.1598	0	0.03
    11	11.1598	0	0.03
    12	11.1598	0	0.03
    13	11.1598	0	0.03

Measurement: prv1_avg
  step	AVG(1000*v(eq35,rv1m)*i(r33))	FROM	TO
     1	0.308249	0	0.03
     2	0.308248	0	0.03
     3	0.308247	0	0.03
     4	0.308239	0	0.03
     5	0.308231	0	0.03
     6	0.308216	0	0.03
     7	0.30821	0	0.03
     8	0.308204	0	0.03
     9	0.308199	0	0.03
    10	0.308193	0	0.03
    11	0.308191	0	0.03
    12	0.308187	0	0.03
    13	0.308181	0	0.03

Measurement: prv2_avg
  step	AVG(1000*(-v(eq36,rv2m)*i(r34)))	FROM	TO
     1	0.667177	0	0.03
     2	0.667176	0	0.03
     3	0.667176	0	0.03
     4	0.667172	0	0.03
     5	0.667164	0	0.03
     6	0.667145	0	0.03
     7	0.667139	0	0.03
     8	0.667134	0	0.03
     9	0.667129	0	0.03
    10	0.667123	0	0.03
    11	0.667122	0	0.03
    12	0.667118	0	0.03
    13	0.667113	0	0.03

Measurement: prvc1_avg
  step	AVG(1000*v(+hvf,midc1)*i(r35))	FROM	TO
     1	34.4512	0	0.03
     2	34.4511	0	0.03
     3	34.451	0	0.03
     4	34.4502	0	0.03
     5	34.4463	0	0.03
     6	34.4322	0	0.03
     7	34.4295	0	0.03
     8	34.427	0	0.03
     9	34.4245	0	0.03
    10	34.422	0	0.03
    11	34.4213	0	0.03
    12	34.4194	0	0.03
    13	34.4161	0	0.03

Measurement: prvc2_avg
  step	AVG(1000*(-v(-hvf,midc2)*i(r36)))	FROM	TO
     1	34.6235	0	0.03
     2	34.6234	0	0.03
     3	34.6233	0	0.03
     4	34.6225	0	0.03
     5	34.62	0	0.03
     6	34.602	0	0.03
     7	34.5988	0	0.03
     8	34.5959	0	0.03
     9	34.5932	0	0.03
    10	34.5907	0	0.03
    11	34.5901	0	0.03
    12	34.5886	0	0.03
    13	34.5873	0	0.03

Measurement: priof_avg
  step	AVG(1000*v(din)*i(riof))	FROM	TO
     1	3.25419e-005	0	0.03
     2	0.000167396	0	0.03
     3	0.000302251	0	0.03
     4	0.00138109	0	0.03
     5	0.00326906	0	0.03
     6	0.00812383	0	0.03
     7	0.00947235	0	0.03
     8	0.0108208	0	0.03
     9	0.0121698	0	0.03
    10	0.0135185	0	0.03
    11	0.013921	0	0.03
    12	0.01487	0	0.03
    13	0.0162171	0	0.03


Date: Sun Jul 07 22:09:09 2019
Total elapsed time: 12539.241 seconds.

tnom = 27
temp = 27
method = modified trap
totiter = 1241915
traniter = 1241468
tranpoints = 586895
accept = 555785
rejected = 31110
matrix size = 356
fillins = 756
solver = Normal
Thread vector: 72.3/37.9[6] 32.1/15.5[6] 13.2/9.6[6] 5.4/8.6[1]  2592/500
Matrix Compiler1: 84.34 KB object code size  38.5/26.3/[13.6]
Matrix Compiler2: off  [11.4]/15.7/22.3


